# generated using pymatgen
data_CuH11C16N2O7
_symmetry_space_group_name_H-M   'P 1'
_cell_length_a   18.79400000
_cell_length_b   18.79400000
_cell_length_c   19.93510000
_cell_angle_alpha   61.87610000
_cell_angle_beta   61.87610000
_cell_angle_gamma   60.00000000
_symmetry_Int_Tables_number   1
_chemical_formula_structural   CuH11C16N2O7
_chemical_formula_sum   'Cu6 H66 C96 N12 O42'
_cell_volume   5115.54607445
_cell_formula_units_Z   6
loop_
 _symmetry_equiv_pos_site_id
 _symmetry_equiv_pos_as_xyz
  1  'x, y, z'
loop_
 _atom_site_type_symbol
 _atom_site_label
 _atom_site_symmetry_multiplicity
 _atom_site_fract_x
 _atom_site_fract_y
 _atom_site_fract_z
 _atom_site_occupancy
  Cu  Cu0  1  0.50086000  0.93233000  0.06595000  1.0
  Cu  Cu1  1  0.50086000  0.50086000  0.06595000  1.0
  Cu  Cu2  1  0.93233000  0.50086000  0.06595000  1.0
  Cu  Cu3  1  0.49914000  0.06767000  0.93405000  1.0
  Cu  Cu4  1  0.06767000  0.49914000  0.93405000  1.0
  Cu  Cu5  1  0.49914000  0.49914000  0.93405000  1.0
  H  H6  1  0.53220000  0.02080000  0.20640000  1.0
  H  H7  1  0.32210000  0.95400000  0.31860000  1.0
  H  H8  1  0.51070000  0.73390000  0.32790000  1.0
  H  H9  1  0.24060000  0.53220000  0.20640000  1.0
  H  H10  1  0.40530000  0.32210000  0.31860000  1.0
  H  H11  1  0.42750000  0.51070000  0.32790000  1.0
  H  H12  1  0.02080000  0.24060000  0.20640000  1.0
  H  H13  1  0.95400000  0.40530000  0.31860000  1.0
  H  H14  1  0.73390000  0.42750000  0.32790000  1.0
  H  H15  1  0.75940000  0.97920000  0.79360000  1.0
  H  H16  1  0.59470000  0.04600000  0.68140000  1.0
  H  H17  1  0.57250000  0.26610000  0.67210000  1.0
  H  H18  1  0.97920000  0.46780000  0.79360000  1.0
  H  H19  1  0.04600000  0.67790000  0.68140000  1.0
  H  H20  1  0.26610000  0.48930000  0.67210000  1.0
  H  H21  1  0.46780000  0.75940000  0.79360000  1.0
  H  H22  1  0.67790000  0.59470000  0.68140000  1.0
  H  H23  1  0.48930000  0.57250000  0.67210000  1.0
  H  H24  1  0.46780000  0.97920000  0.79360000  1.0
  H  H25  1  0.67790000  0.04600000  0.68140000  1.0
  H  H26  1  0.48930000  0.26610000  0.67210000  1.0
  H  H27  1  0.75940000  0.46780000  0.79360000  1.0
  H  H28  1  0.59470000  0.67790000  0.68140000  1.0
  H  H29  1  0.57250000  0.48930000  0.67210000  1.0
  H  H30  1  0.97920000  0.75940000  0.79360000  1.0
  H  H31  1  0.04600000  0.59470000  0.68140000  1.0
  H  H32  1  0.26610000  0.57250000  0.67210000  1.0
  H  H33  1  0.24060000  0.02080000  0.20640000  1.0
  H  H34  1  0.40530000  0.95400000  0.31860000  1.0
  H  H35  1  0.42750000  0.73390000  0.32790000  1.0
  H  H36  1  0.02080000  0.53220000  0.20640000  1.0
  H  H37  1  0.95400000  0.32210000  0.31860000  1.0
  H  H38  1  0.73390000  0.51070000  0.32790000  1.0
  H  H39  1  0.53220000  0.24060000  0.20640000  1.0
  H  H40  1  0.32210000  0.40530000  0.31860000  1.0
  H  H41  1  0.51070000  0.42750000  0.32790000  1.0
  H  H42  1  0.53370000  0.23060000  0.00510000  1.0
  H  H43  1  0.23060000  0.53370000  0.00510000  1.0
  H  H44  1  0.23060000  0.23060000  0.00510000  1.0
  H  H45  1  0.76940000  0.76940000  0.99490000  1.0
  H  H46  1  0.76940000  0.46630000  0.99490000  1.0
  H  H47  1  0.46630000  0.76940000  0.99490000  1.0
  H  H48  1  0.50000000  0.87370000  0.50000000  1.0
  H  H49  1  0.12630000  0.50000000  0.50000000  1.0
  H  H50  1  0.87370000  0.12630000  0.50000000  1.0
  H  H51  1  0.50000000  0.12630000  0.50000000  1.0
  H  H52  1  0.87370000  0.50000000  0.50000000  1.0
  H  H53  1  0.12630000  0.87370000  0.50000000  1.0
  H  H54  1  0.43750000  0.91830000  0.20670000  1.0
  H  H55  1  0.35825000  0.89230000  0.39120000  1.0
  H  H56  1  0.42595000  0.74790000  0.40020000  1.0
  H  H57  1  0.43750000  0.43750000  0.20670000  1.0
  H  H58  1  0.35825000  0.35825000  0.39120000  1.0
  H  H59  1  0.42595000  0.42595000  0.40020000  1.0
  H  H60  1  0.91830000  0.43750000  0.20670000  1.0
  H  H61  1  0.89230000  0.35825000  0.39120000  1.0
  H  H62  1  0.74790000  0.42595000  0.40020000  1.0
  H  H63  1  0.56250000  0.08170000  0.79330000  1.0
  H  H64  1  0.64175000  0.10770000  0.60880000  1.0
  H  H65  1  0.57405000  0.25210000  0.59980000  1.0
  H  H66  1  0.08170000  0.56250000  0.79330000  1.0
  H  H67  1  0.10770000  0.64175000  0.60880000  1.0
  H  H68  1  0.25210000  0.57405000  0.59980000  1.0
  H  H69  1  0.56250000  0.56250000  0.79330000  1.0
  H  H70  1  0.64175000  0.64175000  0.60880000  1.0
  H  H71  1  0.57405000  0.57405000  0.59980000  1.0
  C  C72  1  0.53213000  0.12093000  0.10101000  1.0
  C  C73  1  0.53244000  0.07684000  0.18018000  1.0
  C  C74  1  0.52602000  0.07392000  0.06024000  1.0
  C  C75  1  0.53640000  0.00610000  0.34170000  1.0
  C  C76  1  0.51960000  0.99680000  0.43080000  1.0
  C  C77  1  0.24593000  0.53213000  0.10101000  1.0
  C  C78  1  0.21054000  0.53244000  0.18018000  1.0
  C  C79  1  0.33982000  0.52602000  0.06024000  1.0
  C  C80  1  0.11580000  0.53640000  0.34170000  1.0
  C  C81  1  0.05280000  0.51960000  0.43080000  1.0
  C  C82  1  0.12093000  0.24593000  0.10101000  1.0
  C  C83  1  0.07684000  0.21054000  0.18018000  1.0
  C  C84  1  0.07392000  0.33982000  0.06024000  1.0
  C  C85  1  0.00610000  0.11580000  0.34170000  1.0
  C  C86  1  0.99680000  0.05280000  0.43080000  1.0
  C  C87  1  0.75407000  0.87907000  0.89899000  1.0
  C  C88  1  0.78946000  0.92316000  0.81982000  1.0
  C  C89  1  0.66018000  0.92608000  0.93976000  1.0
  C  C90  1  0.88420000  0.99390000  0.65830000  1.0
  C  C91  1  0.94720000  0.00320000  0.56920000  1.0
  C  C92  1  0.87907000  0.46787000  0.89899000  1.0
  C  C93  1  0.92316000  0.46756000  0.81982000  1.0
  C  C94  1  0.92608000  0.47398000  0.93976000  1.0
  C  C95  1  0.99390000  0.46360000  0.65830000  1.0
  C  C96  1  0.00320000  0.48040000  0.56920000  1.0
  C  C97  1  0.46787000  0.75407000  0.89899000  1.0
  C  C98  1  0.46756000  0.78946000  0.81982000  1.0
  C  C99  1  0.47398000  0.66018000  0.93976000  1.0
  C  C100  1  0.46360000  0.88420000  0.65830000  1.0
  C  C101  1  0.48040000  0.94720000  0.56920000  1.0
  C  C102  1  0.46787000  0.87907000  0.89899000  1.0
  C  C103  1  0.46756000  0.92316000  0.81982000  1.0
  C  C104  1  0.47398000  0.92608000  0.93976000  1.0
  C  C105  1  0.46360000  0.99390000  0.65830000  1.0
  C  C106  1  0.48040000  0.00320000  0.56920000  1.0
  C  C107  1  0.75407000  0.46787000  0.89899000  1.0
  C  C108  1  0.78946000  0.46756000  0.81982000  1.0
  C  C109  1  0.66018000  0.47398000  0.93976000  1.0
  C  C110  1  0.88420000  0.46360000  0.65830000  1.0
  C  C111  1  0.94720000  0.48040000  0.56920000  1.0
  C  C112  1  0.87907000  0.75407000  0.89899000  1.0
  C  C113  1  0.92316000  0.78946000  0.81982000  1.0
  C  C114  1  0.92608000  0.66018000  0.93976000  1.0
  C  C115  1  0.99390000  0.88420000  0.65830000  1.0
  C  C116  1  0.00320000  0.94720000  0.56920000  1.0
  C  C117  1  0.24593000  0.12093000  0.10101000  1.0
  C  C118  1  0.21054000  0.07684000  0.18018000  1.0
  C  C119  1  0.33982000  0.07392000  0.06024000  1.0
  C  C120  1  0.11580000  0.00610000  0.34170000  1.0
  C  C121  1  0.05280000  0.99680000  0.43080000  1.0
  C  C122  1  0.12093000  0.53213000  0.10101000  1.0
  C  C123  1  0.07684000  0.53244000  0.18018000  1.0
  C  C124  1  0.07392000  0.52602000  0.06024000  1.0
  C  C125  1  0.00610000  0.53640000  0.34170000  1.0
  C  C126  1  0.99680000  0.51960000  0.43080000  1.0
  C  C127  1  0.53213000  0.24593000  0.10101000  1.0
  C  C128  1  0.53244000  0.21054000  0.18018000  1.0
  C  C129  1  0.52602000  0.33982000  0.06024000  1.0
  C  C130  1  0.53640000  0.11580000  0.34170000  1.0
  C  C131  1  0.51960000  0.05280000  0.43080000  1.0
  C  C132  1  0.53274000  0.20444000  0.05838000  1.0
  C  C133  1  0.53280000  0.12500000  0.21720000  1.0
  C  C134  1  0.20444000  0.53274000  0.05838000  1.0
  C  C135  1  0.12500000  0.53280000  0.21720000  1.0
  C  C136  1  0.20444000  0.20444000  0.05838000  1.0
  C  C137  1  0.12500000  0.12500000  0.21720000  1.0
  C  C138  1  0.79556000  0.79556000  0.94162000  1.0
  C  C139  1  0.87500000  0.87500000  0.78280000  1.0
  C  C140  1  0.79556000  0.46726000  0.94162000  1.0
  C  C141  1  0.87500000  0.46720000  0.78280000  1.0
  C  C142  1  0.46726000  0.79556000  0.94162000  1.0
  C  C143  1  0.46720000  0.87500000  0.78280000  1.0
  C  C144  1  0.50000000  0.92320000  0.50000000  1.0
  C  C145  1  0.07680000  0.50000000  0.50000000  1.0
  C  C146  1  0.92320000  0.07680000  0.50000000  1.0
  C  C147  1  0.50000000  0.07680000  0.50000000  1.0
  C  C148  1  0.92320000  0.50000000  0.50000000  1.0
  C  C149  1  0.07680000  0.92320000  0.50000000  1.0
  C  C150  1  0.45315000  0.85940000  0.23430000  1.0
  C  C151  1  0.37355000  0.91870000  0.33420000  1.0
  C  C152  1  0.44890000  0.75900000  0.34320000  1.0
  C  C153  1  0.45315000  0.45315000  0.23430000  1.0
  C  C154  1  0.37355000  0.37355000  0.33420000  1.0
  C  C155  1  0.44890000  0.44890000  0.34320000  1.0
  C  C156  1  0.85940000  0.45315000  0.23430000  1.0
  C  C157  1  0.91870000  0.37355000  0.33420000  1.0
  C  C158  1  0.75900000  0.44890000  0.34320000  1.0
  C  C159  1  0.54685000  0.14060000  0.76570000  1.0
  C  C160  1  0.62645000  0.08130000  0.66580000  1.0
  C  C161  1  0.55110000  0.24100000  0.65680000  1.0
  C  C162  1  0.14060000  0.54685000  0.76570000  1.0
  C  C163  1  0.08130000  0.62645000  0.66580000  1.0
  C  C164  1  0.24100000  0.55110000  0.65680000  1.0
  C  C165  1  0.54685000  0.54685000  0.76570000  1.0
  C  C166  1  0.62645000  0.62645000  0.66580000  1.0
  C  C167  1  0.55110000  0.55110000  0.65680000  1.0
  N  N168  1  0.52270000  0.08460000  0.30810000  1.0
  N  N169  1  0.08460000  0.52270000  0.30810000  1.0
  N  N170  1  0.08460000  0.08460000  0.30810000  1.0
  N  N171  1  0.91540000  0.91540000  0.69190000  1.0
  N  N172  1  0.91540000  0.47730000  0.69190000  1.0
  N  N173  1  0.47730000  0.91540000  0.69190000  1.0
  N  N174  1  0.42000000  0.86000000  0.30000000  1.0
  N  N175  1  0.42000000  0.42000000  0.30000000  1.0
  N  N176  1  0.86000000  0.42000000  0.30000000  1.0
  N  N177  1  0.58000000  0.14000000  0.70000000  1.0
  N  N178  1  0.14000000  0.58000000  0.70000000  1.0
  N  N179  1  0.58000000  0.58000000  0.70000000  1.0
  O  O180  1  0.52235000  0.99915000  0.10215000  1.0
  O  O181  1  0.52087000  0.11467000  0.98929000  1.0
  O  O182  1  0.53000000  0.95000000  0.33000000  1.0
  O  O183  1  0.37635000  0.52235000  0.10215000  1.0
  O  O184  1  0.37517000  0.52087000  0.98929000  1.0
  O  O185  1  0.19000000  0.53000000  0.33000000  1.0
  O  O186  1  0.99915000  0.37635000  0.10215000  1.0
  O  O187  1  0.11467000  0.37517000  0.98929000  1.0
  O  O188  1  0.95000000  0.19000000  0.33000000  1.0
  O  O189  1  0.62365000  0.00085000  0.89785000  1.0
  O  O190  1  0.62483000  0.88533000  0.01071000  1.0
  O  O191  1  0.81000000  0.05000000  0.67000000  1.0
  O  O192  1  0.00085000  0.47765000  0.89785000  1.0
  O  O193  1  0.88533000  0.47913000  0.01071000  1.0
  O  O194  1  0.05000000  0.47000000  0.67000000  1.0
  O  O195  1  0.47765000  0.62365000  0.89785000  1.0
  O  O196  1  0.47913000  0.62483000  0.01071000  1.0
  O  O197  1  0.47000000  0.81000000  0.67000000  1.0
  O  O198  1  0.47765000  0.00085000  0.89785000  1.0
  O  O199  1  0.47913000  0.88533000  0.01071000  1.0
  O  O200  1  0.47000000  0.05000000  0.67000000  1.0
  O  O201  1  0.62365000  0.47765000  0.89785000  1.0
  O  O202  1  0.62483000  0.47913000  0.01071000  1.0
  O  O203  1  0.81000000  0.47000000  0.67000000  1.0
  O  O204  1  0.00085000  0.62365000  0.89785000  1.0
  O  O205  1  0.88533000  0.62483000  0.01071000  1.0
  O  O206  1  0.05000000  0.81000000  0.67000000  1.0
  O  O207  1  0.37635000  0.99915000  0.10215000  1.0
  O  O208  1  0.37517000  0.11467000  0.98929000  1.0
  O  O209  1  0.19000000  0.95000000  0.33000000  1.0
  O  O210  1  0.99915000  0.52235000  0.10215000  1.0
  O  O211  1  0.11467000  0.52087000  0.98929000  1.0
  O  O212  1  0.95000000  0.53000000  0.33000000  1.0
  O  O213  1  0.52235000  0.37635000  0.10215000  1.0
  O  O214  1  0.52087000  0.37517000  0.98929000  1.0
  O  O215  1  0.53000000  0.19000000  0.33000000  1.0
  O  O216  1  0.49781000  0.82741000  0.17697000  1.0
  O  O217  1  0.49781000  0.49781000  0.17697000  1.0
  O  O218  1  0.82741000  0.49781000  0.17697000  1.0
  O  O219  1  0.50219000  0.17259000  0.82303000  1.0
  O  O220  1  0.17259000  0.50219000  0.82303000  1.0
  O  O221  1  0.50219000  0.50219000  0.82303000  1.0
