# generated using pymatgen
data_CuH7C10IN2
_symmetry_space_group_name_H-M   'P 1'
_cell_length_a   10.07483412
_cell_length_b   10.07483412
_cell_length_c   16.42000000
_cell_angle_alpha   95.45189464
_cell_angle_beta   95.45189464
_cell_angle_gamma   91.33511182
_symmetry_Int_Tables_number   1
_chemical_formula_structural   CuH7C10IN2
_chemical_formula_sum   'Cu4 H28 C40 I4 N8'
_cell_volume   1650.74361921
_cell_formula_units_Z   4
loop_
 _symmetry_equiv_pos_site_id
 _symmetry_equiv_pos_as_xyz
  1  'x, y, z'
loop_
 _atom_site_type_symbol
 _atom_site_label
 _atom_site_symmetry_multiplicity
 _atom_site_fract_x
 _atom_site_fract_y
 _atom_site_fract_z
 _atom_site_occupancy
  Cu  Cu0  1  0.59114000  0.91344000  0.51931000  1.0
  Cu  Cu1  1  0.08656000  0.40886000  0.98069000  1.0
  Cu  Cu2  1  0.40886000  0.08656000  0.48069000  1.0
  Cu  Cu3  1  0.91344000  0.59114000  0.01931000  1.0
  H  H4  1  0.59230000  0.78390000  0.67340000  1.0
  H  H5  1  0.84930000  0.97910000  0.85100000  1.0
  H  H6  1  0.80470000  0.08890000  0.62120000  1.0
  H  H7  1  0.86230000  0.76970000  0.88900000  1.0
  H  H8  1  0.48110000  0.73050000  0.78930000  1.0
  H  H9  1  0.44500000  0.57320000  0.88180000  1.0
  H  H10  1  0.61880000  0.51660000  0.97200000  1.0
  H  H11  1  0.21610000  0.40770000  0.82660000  1.0
  H  H12  1  0.02090000  0.15070000  0.64900000  1.0
  H  H13  1  0.91110000  0.19530000  0.87880000  1.0
  H  H14  1  0.23030000  0.13770000  0.61100000  1.0
  H  H15  1  0.26950000  0.51890000  0.71070000  1.0
  H  H16  1  0.42680000  0.55500000  0.61820000  1.0
  H  H17  1  0.48340000  0.38120000  0.52800000  1.0
  H  H18  1  0.40770000  0.21610000  0.32660000  1.0
  H  H19  1  0.15070000  0.02090000  0.14900000  1.0
  H  H20  1  0.19530000  0.91110000  0.37880000  1.0
  H  H21  1  0.13770000  0.23030000  0.11100000  1.0
  H  H22  1  0.51890000  0.26950000  0.21070000  1.0
  H  H23  1  0.55500000  0.42680000  0.11820000  1.0
  H  H24  1  0.38120000  0.48340000  0.02800000  1.0
  H  H25  1  0.78390000  0.59230000  0.17340000  1.0
  H  H26  1  0.97910000  0.84930000  0.35100000  1.0
  H  H27  1  0.08890000  0.80470000  0.12120000  1.0
  H  H28  1  0.76970000  0.86230000  0.38900000  1.0
  H  H29  1  0.73050000  0.48110000  0.28930000  1.0
  H  H30  1  0.57320000  0.44500000  0.38180000  1.0
  H  H31  1  0.51660000  0.61880000  0.47200000  1.0
  C  C32  1  0.65790000  0.85270000  0.69040000  1.0
  C  C33  1  0.71320000  0.86340000  0.77150000  1.0
  C  C34  1  0.80950000  0.96610000  0.79590000  1.0
  C  C35  1  0.84500000  0.04780000  0.73840000  1.0
  C  C36  1  0.78190000  0.02950000  0.65970000  1.0
  C  C37  1  0.77620000  0.72860000  0.88700000  1.0
  C  C38  1  0.67670000  0.76550000  0.82960000  1.0
  C  C39  1  0.55160000  0.70740000  0.82740000  1.0
  C  C40  1  0.53070000  0.61450000  0.88170000  1.0
  C  C41  1  0.63500000  0.58220000  0.93580000  1.0
  C  C42  1  0.14730000  0.34210000  0.80960000  1.0
  C  C43  1  0.13660000  0.28680000  0.72850000  1.0
  C  C44  1  0.03390000  0.19050000  0.70410000  1.0
  C  C45  1  0.95220000  0.15500000  0.76160000  1.0
  C  C46  1  0.97050000  0.21810000  0.84030000  1.0
  C  C47  1  0.27140000  0.22380000  0.61300000  1.0
  C  C48  1  0.23450000  0.32330000  0.67040000  1.0
  C  C49  1  0.29260000  0.44840000  0.67260000  1.0
  C  C50  1  0.38550000  0.46930000  0.61830000  1.0
  C  C51  1  0.41780000  0.36500000  0.56420000  1.0
  C  C52  1  0.34210000  0.14730000  0.30960000  1.0
  C  C53  1  0.28680000  0.13660000  0.22850000  1.0
  C  C54  1  0.19050000  0.03390000  0.20410000  1.0
  C  C55  1  0.15500000  0.95220000  0.26160000  1.0
  C  C56  1  0.21810000  0.97050000  0.34030000  1.0
  C  C57  1  0.22380000  0.27140000  0.11300000  1.0
  C  C58  1  0.32330000  0.23450000  0.17040000  1.0
  C  C59  1  0.44840000  0.29260000  0.17260000  1.0
  C  C60  1  0.46930000  0.38550000  0.11830000  1.0
  C  C61  1  0.36500000  0.41780000  0.06420000  1.0
  C  C62  1  0.85270000  0.65790000  0.19040000  1.0
  C  C63  1  0.86340000  0.71320000  0.27150000  1.0
  C  C64  1  0.96610000  0.80950000  0.29590000  1.0
  C  C65  1  0.04780000  0.84500000  0.23840000  1.0
  C  C66  1  0.02950000  0.78190000  0.15970000  1.0
  C  C67  1  0.72860000  0.77620000  0.38700000  1.0
  C  C68  1  0.76550000  0.67670000  0.32960000  1.0
  C  C69  1  0.70740000  0.55160000  0.32740000  1.0
  C  C70  1  0.61450000  0.53070000  0.38170000  1.0
  C  C71  1  0.58220000  0.63500000  0.43580000  1.0
  I  I72  1  0.65788000  0.13486000  0.45136000  1.0
  I  I73  1  0.86514000  0.34212000  0.04864000  1.0
  I  I74  1  0.34212000  0.86514000  0.54864000  1.0
  I  I75  1  0.13486000  0.65788000  0.95136000  1.0
  N  N76  1  0.69060000  0.93240000  0.63490000  1.0
  N  N77  1  0.75650000  0.63670000  0.94050000  1.0
  N  N78  1  0.06760000  0.30940000  0.86510000  1.0
  N  N79  1  0.36330000  0.24350000  0.55950000  1.0
  N  N80  1  0.30940000  0.06760000  0.36510000  1.0
  N  N81  1  0.24350000  0.36330000  0.05950000  1.0
  N  N82  1  0.93240000  0.69060000  0.13490000  1.0
  N  N83  1  0.63670000  0.75650000  0.44050000  1.0
