# generated using pymatgen
data_CuH14C10BrN4
_symmetry_space_group_name_H-M   'P 1'
_cell_length_a   7.18098000
_cell_length_b   11.35109296
_cell_length_c   11.35110000
_cell_angle_alpha   101.62401324
_cell_angle_beta   108.44000000
_cell_angle_gamma   108.43999340
_symmetry_Int_Tables_number   1
_chemical_formula_structural   CuH14C10BrN4
_chemical_formula_sum   'Cu2 H28 C20 Br2 N8'
_cell_volume   784.54353746
_cell_formula_units_Z   2
loop_
 _symmetry_equiv_pos_site_id
 _symmetry_equiv_pos_as_xyz
  1  'x, y, z'
loop_
 _atom_site_type_symbol
 _atom_site_label
 _atom_site_symmetry_multiplicity
 _atom_site_fract_x
 _atom_site_fract_y
 _atom_site_fract_z
 _atom_site_occupancy
  Cu  Cu0  1  0.77059000  0.11111000  0.61111000  1.0
  Cu  Cu1  1  0.04837000  0.88889000  0.38889000  1.0
  H  H2  1  0.39800000  0.15190000  0.44130000  1.0
  H  H3  1  0.10530000  0.37150000  0.67710000  1.0
  H  H4  1  0.09120000  0.50670000  0.72490000  1.0
  H  H5  1  0.13890000  0.47090000  0.59990000  1.0
  H  H6  1  0.17010000  0.24500000  0.33120000  1.0
  H  H7  1  0.29140000  0.35050000  0.28050000  1.0
  H  H8  1  0.25090000  0.39560000  0.40660000  1.0
  H  H9  1  0.80480000  0.84810000  0.55870000  1.0
  H  H10  1  0.05670000  0.62850000  0.32290000  1.0
  H  H11  1  0.85960000  0.49330000  0.27510000  1.0
  H  H12  1  0.06810000  0.52910000  0.40010000  1.0
  H  H13  1  0.59390000  0.75500000  0.66880000  1.0
  H  H14  1  0.66040000  0.64950000  0.71950000  1.0
  H  H15  1  0.44870000  0.60440000  0.59340000  1.0
  H  H16  1  0.80480000  0.05870000  0.34810000  1.0
  H  H17  1  0.05670000  0.82290000  0.12850000  1.0
  H  H18  1  0.85960000  0.77510000  0.99330000  1.0
  H  H19  1  0.06810000  0.90010000  0.02910000  1.0
  H  H20  1  0.59390000  0.16880000  0.25500000  1.0
  H  H21  1  0.66040000  0.21950000  0.14950000  1.0
  H  H22  1  0.44870000  0.09340000  0.10440000  1.0
  H  H23  1  0.39800000  0.94130000  0.65190000  1.0
  H  H24  1  0.10530000  0.17710000  0.87150000  1.0
  H  H25  1  0.09120000  0.22490000  0.00670000  1.0
  H  H26  1  0.13890000  0.09990000  0.97090000  1.0
  H  H27  1  0.17010000  0.83120000  0.74500000  1.0
  H  H28  1  0.29140000  0.78050000  0.85050000  1.0
  H  H29  1  0.25090000  0.90660000  0.89560000  1.0
  C  C30  1  0.69440000  0.43180000  0.50160000  1.0
  C  C31  1  0.48840000  0.33300000  0.44000000  1.0
  C  C32  1  0.82730000  0.37480000  0.56460000  1.0
  C  C33  1  0.06130000  0.43630000  0.64910000  1.0
  C  C34  1  0.28240000  0.33090000  0.35750000  1.0
  C  C35  1  0.76100000  0.56820000  0.49840000  1.0
  C  C36  1  0.71540000  0.66700000  0.56000000  1.0
  C  C37  1  0.88790000  0.62520000  0.43540000  1.0
  C  C38  1  0.97590000  0.56370000  0.35090000  1.0
  C  C39  1  0.59400000  0.66910000  0.64250000  1.0
  C  C40  1  0.76100000  0.99840000  0.06820000  1.0
  C  C41  1  0.71540000  0.06000000  0.16700000  1.0
  C  C42  1  0.88790000  0.93540000  0.12520000  1.0
  C  C43  1  0.97590000  0.85090000  0.06370000  1.0
  C  C44  1  0.59400000  0.14250000  0.16910000  1.0
  C  C45  1  0.69440000  0.00160000  0.93180000  1.0
  C  C46  1  0.48840000  0.94000000  0.83300000  1.0
  C  C47  1  0.82730000  0.06460000  0.87480000  1.0
  C  C48  1  0.06130000  0.14910000  0.93630000  1.0
  C  C49  1  0.28240000  0.85750000  0.83090000  1.0
  Br  Br50  1  0.41223000  0.90526000  0.40526000  1.0
  Br  Br51  1  0.10171000  0.09474000  0.59474000  1.0
  N  N52  1  0.70870000  0.24976000  0.54444000  1.0
  N  N53  1  0.50530000  0.22670000  0.46850000  1.0
  N  N54  1  0.91450000  0.75024000  0.45556000  1.0
  N  N55  1  0.81010000  0.77330000  0.53150000  1.0
  N  N56  1  0.91450000  0.95556000  0.25024000  1.0
  N  N57  1  0.81010000  0.03150000  0.27330000  1.0
  N  N58  1  0.70870000  0.04444000  0.74976000  1.0
  N  N59  1  0.50530000  0.96850000  0.72670000  1.0
