# generated using pymatgen
data_CuH5(C2O)5
_symmetry_space_group_name_H-M   'P 1'
_cell_length_a   17.53110000
_cell_length_b   17.53110000
_cell_length_c   17.53110000
_cell_angle_alpha   62.68840000
_cell_angle_beta   62.68840000
_cell_angle_gamma   62.68840000
_symmetry_Int_Tables_number   1
_chemical_formula_structural   CuH5(C2O)5
_chemical_formula_sum   'Cu6 H30 C60 O30'
_cell_volume   4037.82352773
_cell_formula_units_Z   6
loop_
 _symmetry_equiv_pos_site_id
 _symmetry_equiv_pos_as_xyz
  1  'x, y, z'
loop_
 _atom_site_type_symbol
 _atom_site_label
 _atom_site_symmetry_multiplicity
 _atom_site_fract_x
 _atom_site_fract_y
 _atom_site_fract_z
 _atom_site_occupancy
  Cu  Cu0  1  0.49936000  0.07728000  0.49936000  1.0
  Cu  Cu1  1  0.07728000  0.49936000  0.49936000  1.0
  Cu  Cu2  1  0.49936000  0.49936000  0.07728000  1.0
  Cu  Cu3  1  0.92272000  0.50064000  0.50064000  1.0
  Cu  Cu4  1  0.50064000  0.92272000  0.50064000  1.0
  Cu  Cu5  1  0.50064000  0.50064000  0.92272000  1.0
  H  H6  1  0.52500000  0.99910000  0.22060000  1.0
  H  H7  1  0.99910000  0.22060000  0.52500000  1.0
  H  H8  1  0.22060000  0.52500000  0.99910000  1.0
  H  H9  1  0.00090000  0.47500000  0.77940000  1.0
  H  H10  1  0.77940000  0.00090000  0.47500000  1.0
  H  H11  1  0.47500000  0.77940000  0.00090000  1.0
  H  H12  1  0.47500000  0.00090000  0.77940000  1.0
  H  H13  1  0.00090000  0.77940000  0.47500000  1.0
  H  H14  1  0.77940000  0.47500000  0.00090000  1.0
  H  H15  1  0.99910000  0.52500000  0.22060000  1.0
  H  H16  1  0.22060000  0.99910000  0.52500000  1.0
  H  H17  1  0.52500000  0.22060000  0.99910000  1.0
  H  H18  1  0.46505000  0.25950000  0.46505000  1.0
  H  H19  1  0.52080000  0.20320000  0.52080000  1.0
  H  H20  1  0.25950000  0.46505000  0.46505000  1.0
  H  H21  1  0.20320000  0.52080000  0.52080000  1.0
  H  H22  1  0.46505000  0.46505000  0.25950000  1.0
  H  H23  1  0.52080000  0.52080000  0.20320000  1.0
  H  H24  1  0.74050000  0.53495000  0.53495000  1.0
  H  H25  1  0.79680000  0.47920000  0.47920000  1.0
  H  H26  1  0.53495000  0.74050000  0.53495000  1.0
  H  H27  1  0.47920000  0.79680000  0.47920000  1.0
  H  H28  1  0.53495000  0.53495000  0.74050000  1.0
  H  H29  1  0.47920000  0.47920000  0.79680000  1.0
  H  H30  1  0.52870000  0.22410000  0.22410000  1.0
  H  H31  1  0.22410000  0.22410000  0.52870000  1.0
  H  H32  1  0.22410000  0.52870000  0.22410000  1.0
  H  H33  1  0.77590000  0.47130000  0.77590000  1.0
  H  H34  1  0.77590000  0.77590000  0.47130000  1.0
  H  H35  1  0.47130000  0.77590000  0.77590000  1.0
  C  C36  1  0.52301000  0.06091000  0.33391000  1.0
  C  C37  1  0.52754000  0.10494000  0.23594000  1.0
  C  C38  1  0.52553000  0.05993000  0.19053000  1.0
  C  C39  1  0.06091000  0.33391000  0.52301000  1.0
  C  C40  1  0.10494000  0.23594000  0.52754000  1.0
  C  C41  1  0.05993000  0.19053000  0.52553000  1.0
  C  C42  1  0.33391000  0.52301000  0.06091000  1.0
  C  C43  1  0.23594000  0.52754000  0.10494000  1.0
  C  C44  1  0.19053000  0.52553000  0.05993000  1.0
  C  C45  1  0.93909000  0.47699000  0.66609000  1.0
  C  C46  1  0.89506000  0.47246000  0.76406000  1.0
  C  C47  1  0.94007000  0.47447000  0.80947000  1.0
  C  C48  1  0.66609000  0.93909000  0.47699000  1.0
  C  C49  1  0.76406000  0.89506000  0.47246000  1.0
  C  C50  1  0.80947000  0.94007000  0.47447000  1.0
  C  C51  1  0.47699000  0.66609000  0.93909000  1.0
  C  C52  1  0.47246000  0.76406000  0.89506000  1.0
  C  C53  1  0.47447000  0.80947000  0.94007000  1.0
  C  C54  1  0.47699000  0.93909000  0.66609000  1.0
  C  C55  1  0.47246000  0.89506000  0.76406000  1.0
  C  C56  1  0.47447000  0.94007000  0.80947000  1.0
  C  C57  1  0.93909000  0.66609000  0.47699000  1.0
  C  C58  1  0.89506000  0.76406000  0.47246000  1.0
  C  C59  1  0.94007000  0.80947000  0.47447000  1.0
  C  C60  1  0.66609000  0.47699000  0.93909000  1.0
  C  C61  1  0.76406000  0.47246000  0.89506000  1.0
  C  C62  1  0.80947000  0.47447000  0.94007000  1.0
  C  C63  1  0.06091000  0.52301000  0.33391000  1.0
  C  C64  1  0.10494000  0.52754000  0.23594000  1.0
  C  C65  1  0.05993000  0.52553000  0.19053000  1.0
  C  C66  1  0.33391000  0.06091000  0.52301000  1.0
  C  C67  1  0.23594000  0.10494000  0.52754000  1.0
  C  C68  1  0.19053000  0.05993000  0.52553000  1.0
  C  C69  1  0.52301000  0.33391000  0.06091000  1.0
  C  C70  1  0.52754000  0.23594000  0.10494000  1.0
  C  C71  1  0.52553000  0.19053000  0.05993000  1.0
  C  C72  1  0.52808000  0.19258000  0.19258000  1.0
  C  C73  1  0.52420000  0.10110000  0.10110000  1.0
  C  C74  1  0.51670000  0.05700000  0.05700000  1.0
  C  C75  1  0.50390000  0.02110000  0.02110000  1.0
  C  C76  1  0.19258000  0.19258000  0.52808000  1.0
  C  C77  1  0.10110000  0.10110000  0.52420000  1.0
  C  C78  1  0.05700000  0.05700000  0.51670000  1.0
  C  C79  1  0.02110000  0.02110000  0.50390000  1.0
  C  C80  1  0.19258000  0.52808000  0.19258000  1.0
  C  C81  1  0.10110000  0.52420000  0.10110000  1.0
  C  C82  1  0.05700000  0.51670000  0.05700000  1.0
  C  C83  1  0.02110000  0.50390000  0.02110000  1.0
  C  C84  1  0.80742000  0.47192000  0.80742000  1.0
  C  C85  1  0.89890000  0.47580000  0.89890000  1.0
  C  C86  1  0.94300000  0.48330000  0.94300000  1.0
  C  C87  1  0.97890000  0.49610000  0.97890000  1.0
  C  C88  1  0.80742000  0.80742000  0.47192000  1.0
  C  C89  1  0.89890000  0.89890000  0.47580000  1.0
  C  C90  1  0.94300000  0.94300000  0.48330000  1.0
  C  C91  1  0.97890000  0.97890000  0.49610000  1.0
  C  C92  1  0.47192000  0.80742000  0.80742000  1.0
  C  C93  1  0.47580000  0.89890000  0.89890000  1.0
  C  C94  1  0.48330000  0.94300000  0.94300000  1.0
  C  C95  1  0.49610000  0.97890000  0.97890000  1.0
  O  O96  1  0.51946000  0.98121000  0.37045000  1.0
  O  O97  1  0.52184000  0.10812000  0.37085000  1.0
  O  O98  1  0.98121000  0.37045000  0.51946000  1.0
  O  O99  1  0.10812000  0.37085000  0.52184000  1.0
  O  O100  1  0.37045000  0.51946000  0.98121000  1.0
  O  O101  1  0.37085000  0.52184000  0.10812000  1.0
  O  O102  1  0.01879000  0.48054000  0.62955000  1.0
  O  O103  1  0.89188000  0.47816000  0.62915000  1.0
  O  O104  1  0.62955000  0.01879000  0.48054000  1.0
  O  O105  1  0.62915000  0.89188000  0.47816000  1.0
  O  O106  1  0.48054000  0.62955000  0.01879000  1.0
  O  O107  1  0.47816000  0.62915000  0.89188000  1.0
  O  O108  1  0.48054000  0.01879000  0.62955000  1.0
  O  O109  1  0.47816000  0.89188000  0.62915000  1.0
  O  O110  1  0.01879000  0.62955000  0.48054000  1.0
  O  O111  1  0.89188000  0.62915000  0.47816000  1.0
  O  O112  1  0.62955000  0.48054000  0.01879000  1.0
  O  O113  1  0.62915000  0.47816000  0.89188000  1.0
  O  O114  1  0.98121000  0.51946000  0.37045000  1.0
  O  O115  1  0.10812000  0.52184000  0.37085000  1.0
  O  O116  1  0.37045000  0.98121000  0.51946000  1.0
  O  O117  1  0.37085000  0.10812000  0.52184000  1.0
  O  O118  1  0.51946000  0.37045000  0.98121000  1.0
  O  O119  1  0.52184000  0.37085000  0.10812000  1.0
  O  O120  1  0.49175000  0.20550000  0.49175000  1.0
  O  O121  1  0.20550000  0.49175000  0.49175000  1.0
  O  O122  1  0.49175000  0.49175000  0.20550000  1.0
  O  O123  1  0.79450000  0.50825000  0.50825000  1.0
  O  O124  1  0.50825000  0.79450000  0.50825000  1.0
  O  O125  1  0.50825000  0.50825000  0.79450000  1.0
