# generated using pymatgen
data_CuH10(C9O2)2
_symmetry_space_group_name_H-M   'P 1'
_cell_length_a   23.33672084
_cell_length_b   23.33630000
_cell_length_c   23.33640000
_cell_angle_alpha   109.47100000
_cell_angle_beta   109.47120979
_cell_angle_gamma   109.47086258
_symmetry_Int_Tables_number   1
_chemical_formula_structural   CuH10(C9O2)2
_chemical_formula_sum   'Cu12 H120 C216 O48'
_cell_volume   9783.33578150
_cell_formula_units_Z   12
loop_
 _symmetry_equiv_pos_site_id
 _symmetry_equiv_pos_as_xyz
  1  'x, y, z'
loop_
 _atom_site_type_symbol
 _atom_site_label
 _atom_site_symmetry_multiplicity
 _atom_site_fract_x
 _atom_site_fract_y
 _atom_site_fract_z
 _atom_site_occupancy
  Cu  Cu0  1  0.35781000  0.50000000  0.85781000  1.0
  Cu  Cu1  1  0.25985000  0.50000000  0.75985000  1.0
  Cu  Cu2  1  0.64219000  0.50000000  0.14219000  1.0
  Cu  Cu3  1  0.74015000  0.50000000  0.24015000  1.0
  Cu  Cu4  1  0.14219000  0.64219000  0.50000000  1.0
  Cu  Cu5  1  0.24015000  0.74015000  0.50000000  1.0
  Cu  Cu6  1  0.85781000  0.35781000  0.50000000  1.0
  Cu  Cu7  1  0.75985000  0.25985000  0.50000000  1.0
  Cu  Cu8  1  0.50000000  0.85781000  0.35781000  1.0
  Cu  Cu9  1  0.50000000  0.75985000  0.25985000  1.0
  Cu  Cu10  1  0.50000000  0.14219000  0.64219000  1.0
  Cu  Cu11  1  0.50000000  0.24015000  0.74015000  1.0
  H  H12  1  0.25560000  0.27380000  0.78140000  1.0
  H  H13  1  0.17790000  0.15600000  0.73170000  1.0
  H  H14  1  0.03400000  0.16740000  0.58860000  1.0
  H  H15  1  0.11100000  0.28560000  0.63740000  1.0
  H  H16  1  0.12040000  0.04250000  0.63190000  1.0
  H  H17  1  0.74440000  0.52580000  0.01820000  1.0
  H  H18  1  0.82210000  0.55380000  0.97810000  1.0
  H  H19  1  0.96600000  0.55460000  0.13340000  1.0
  H  H20  1  0.88900000  0.52640000  0.17460000  1.0
  H  H21  1  0.87960000  0.51150000  0.92210000  1.0
  H  H22  1  0.49240000  0.47420000  0.21860000  1.0
  H  H23  1  0.42430000  0.44620000  0.26830000  1.0
  H  H24  1  0.57880000  0.44540000  0.41140000  1.0
  H  H25  1  0.64820000  0.47360000  0.36260000  1.0
  H  H26  1  0.41060000  0.48850000  0.36810000  1.0
  H  H27  1  0.50760000  0.72620000  0.98180000  1.0
  H  H28  1  0.57570000  0.84400000  0.02190000  1.0
  H  H29  1  0.42120000  0.83260000  0.86660000  1.0
  H  H30  1  0.35180000  0.71440000  0.82540000  1.0
  H  H31  1  0.58940000  0.95750000  0.07790000  1.0
  H  H32  1  0.01820000  0.74440000  0.52580000  1.0
  H  H33  1  0.97810000  0.82210000  0.55380000  1.0
  H  H34  1  0.13340000  0.96600000  0.55460000  1.0
  H  H35  1  0.17460000  0.88900000  0.52640000  1.0
  H  H36  1  0.92210000  0.87960000  0.51150000  1.0
  H  H37  1  0.78140000  0.25560000  0.27380000  1.0
  H  H38  1  0.73170000  0.17790000  0.15600000  1.0
  H  H39  1  0.58860000  0.03400000  0.16740000  1.0
  H  H40  1  0.63740000  0.11100000  0.28560000  1.0
  H  H41  1  0.63190000  0.12040000  0.04250000  1.0
  H  H42  1  0.98180000  0.50760000  0.72620000  1.0
  H  H43  1  0.02190000  0.57570000  0.84400000  1.0
  H  H44  1  0.86660000  0.42120000  0.83260000  1.0
  H  H45  1  0.82540000  0.35180000  0.71440000  1.0
  H  H46  1  0.07790000  0.58940000  0.95750000  1.0
  H  H47  1  0.21860000  0.49240000  0.47420000  1.0
  H  H48  1  0.26830000  0.42430000  0.44620000  1.0
  H  H49  1  0.41140000  0.57880000  0.44540000  1.0
  H  H50  1  0.36260000  0.64820000  0.47360000  1.0
  H  H51  1  0.36810000  0.41060000  0.48850000  1.0
  H  H52  1  0.72620000  0.98180000  0.50760000  1.0
  H  H53  1  0.84400000  0.02190000  0.57570000  1.0
  H  H54  1  0.83260000  0.86660000  0.42120000  1.0
  H  H55  1  0.71440000  0.82540000  0.35180000  1.0
  H  H56  1  0.95750000  0.07790000  0.58940000  1.0
  H  H57  1  0.47420000  0.21860000  0.49240000  1.0
  H  H58  1  0.44620000  0.26830000  0.42430000  1.0
  H  H59  1  0.44540000  0.41140000  0.57880000  1.0
  H  H60  1  0.47360000  0.36260000  0.64820000  1.0
  H  H61  1  0.48850000  0.36810000  0.41060000  1.0
  H  H62  1  0.52580000  0.01820000  0.74440000  1.0
  H  H63  1  0.55380000  0.97810000  0.82210000  1.0
  H  H64  1  0.55460000  0.13340000  0.96600000  1.0
  H  H65  1  0.52640000  0.17460000  0.88900000  1.0
  H  H66  1  0.51150000  0.92210000  0.87960000  1.0
  H  H67  1  0.27380000  0.78140000  0.25560000  1.0
  H  H68  1  0.15600000  0.73170000  0.17790000  1.0
  H  H69  1  0.16740000  0.58860000  0.03400000  1.0
  H  H70  1  0.28560000  0.63740000  0.11100000  1.0
  H  H71  1  0.04250000  0.63190000  0.12040000  1.0
  H  H72  1  0.74440000  0.72620000  0.21860000  1.0
  H  H73  1  0.82210000  0.84400000  0.26830000  1.0
  H  H74  1  0.96600000  0.83260000  0.41140000  1.0
  H  H75  1  0.88900000  0.71440000  0.36260000  1.0
  H  H76  1  0.87960000  0.95750000  0.36810000  1.0
  H  H77  1  0.25560000  0.47420000  0.98180000  1.0
  H  H78  1  0.17790000  0.44620000  0.02190000  1.0
  H  H79  1  0.03400000  0.44540000  0.86660000  1.0
  H  H80  1  0.11100000  0.47360000  0.82540000  1.0
  H  H81  1  0.12040000  0.48850000  0.07790000  1.0
  H  H82  1  0.50760000  0.52580000  0.78140000  1.0
  H  H83  1  0.57570000  0.55380000  0.73170000  1.0
  H  H84  1  0.42120000  0.55460000  0.58860000  1.0
  H  H85  1  0.35180000  0.52640000  0.63740000  1.0
  H  H86  1  0.58940000  0.51150000  0.63190000  1.0
  H  H87  1  0.49240000  0.27380000  0.01820000  1.0
  H  H88  1  0.42430000  0.15600000  0.97810000  1.0
  H  H89  1  0.57880000  0.16740000  0.13340000  1.0
  H  H90  1  0.64820000  0.28560000  0.17460000  1.0
  H  H91  1  0.41060000  0.04250000  0.92210000  1.0
  H  H92  1  0.98180000  0.25560000  0.47420000  1.0
  H  H93  1  0.02190000  0.17790000  0.44620000  1.0
  H  H94  1  0.86660000  0.03400000  0.44540000  1.0
  H  H95  1  0.82540000  0.11100000  0.47360000  1.0
  H  H96  1  0.07790000  0.12040000  0.48850000  1.0
  H  H97  1  0.21860000  0.74440000  0.72620000  1.0
  H  H98  1  0.26830000  0.82210000  0.84400000  1.0
  H  H99  1  0.41140000  0.96600000  0.83260000  1.0
  H  H100  1  0.36260000  0.88900000  0.71440000  1.0
  H  H101  1  0.36810000  0.87960000  0.95750000  1.0
  H  H102  1  0.01820000  0.49240000  0.27380000  1.0
  H  H103  1  0.97810000  0.42430000  0.15600000  1.0
  H  H104  1  0.13340000  0.57880000  0.16740000  1.0
  H  H105  1  0.17460000  0.64820000  0.28560000  1.0
  H  H106  1  0.92210000  0.41060000  0.04250000  1.0
  H  H107  1  0.78140000  0.50760000  0.52580000  1.0
  H  H108  1  0.73170000  0.57570000  0.55380000  1.0
  H  H109  1  0.58860000  0.42120000  0.55460000  1.0
  H  H110  1  0.63740000  0.35180000  0.52640000  1.0
  H  H111  1  0.63190000  0.58940000  0.51150000  1.0
  H  H112  1  0.27380000  0.01820000  0.49240000  1.0
  H  H113  1  0.15600000  0.97810000  0.42430000  1.0
  H  H114  1  0.16740000  0.13340000  0.57880000  1.0
  H  H115  1  0.28560000  0.17460000  0.64820000  1.0
  H  H116  1  0.04250000  0.92210000  0.41060000  1.0
  H  H117  1  0.52580000  0.78140000  0.50760000  1.0
  H  H118  1  0.55380000  0.73170000  0.57570000  1.0
  H  H119  1  0.55460000  0.58860000  0.42120000  1.0
  H  H120  1  0.52640000  0.63740000  0.35180000  1.0
  H  H121  1  0.51150000  0.63190000  0.58940000  1.0
  H  H122  1  0.47420000  0.98180000  0.25560000  1.0
  H  H123  1  0.44620000  0.02190000  0.17790000  1.0
  H  H124  1  0.44540000  0.86660000  0.03400000  1.0
  H  H125  1  0.47360000  0.82540000  0.11100000  1.0
  H  H126  1  0.48850000  0.07790000  0.12040000  1.0
  H  H127  1  0.72620000  0.21860000  0.74440000  1.0
  H  H128  1  0.84400000  0.26830000  0.82210000  1.0
  H  H129  1  0.83260000  0.41140000  0.96600000  1.0
  H  H130  1  0.71440000  0.36260000  0.88900000  1.0
  H  H131  1  0.95750000  0.36810000  0.87960000  1.0
  C  C132  1  0.23820000  0.36810000  0.74510000  1.0
  C  C133  1  0.19100000  0.29160000  0.71440000  1.0
  C  C134  1  0.21030000  0.25220000  0.74210000  1.0
  C  C135  1  0.16430000  0.18280000  0.71310000  1.0
  C  C136  1  0.09580000  0.15030000  0.65490000  1.0
  C  C137  1  0.07910000  0.18920000  0.62850000  1.0
  C  C138  1  0.12480000  0.25940000  0.65700000  1.0
  C  C139  1  0.04620000  0.07180000  0.61900000  1.0
  C  C140  1  0.07080000  0.02470000  0.61250000  1.0
  C  C141  1  0.76180000  0.50690000  0.12990000  1.0
  C  C142  1  0.80900000  0.52340000  0.10060000  1.0
  C  C143  1  0.78970000  0.53180000  0.04190000  1.0
  C  C144  1  0.83570000  0.54880000  0.01850000  1.0
  C  C145  1  0.90420000  0.55910000  0.05450000  1.0
  C  C146  1  0.92090000  0.54940000  0.11010000  1.0
  C  C147  1  0.87520000  0.53220000  0.13460000  1.0
  C  C148  1  0.95380000  0.57280000  0.02560000  1.0
  C  C149  1  0.92920000  0.54170000  0.95390000  1.0
  C  C150  1  0.62300000  0.49310000  0.25490000  1.0
  C  C151  1  0.57720000  0.47660000  0.28560000  1.0
  C  C152  1  0.51010000  0.46820000  0.25790000  1.0
  C  C153  1  0.46970000  0.45120000  0.28690000  1.0
  C  C154  1  0.49540000  0.44090000  0.34510000  1.0
  C  C155  1  0.56070000  0.45060000  0.37150000  1.0
  C  C156  1  0.60240000  0.46780000  0.34300000  1.0
  C  C157  1  0.45280000  0.42720000  0.38100000  1.0
  C  C158  1  0.41220000  0.45830000  0.38750000  1.0
  C  C159  1  0.37700000  0.63190000  0.87010000  1.0
  C  C160  1  0.42280000  0.70840000  0.89940000  1.0
  C  C161  1  0.48990000  0.74780000  0.95810000  1.0
  C  C162  1  0.53030000  0.81720000  0.98150000  1.0
  C  C163  1  0.50460000  0.84970000  0.94550000  1.0
  C  C164  1  0.43930000  0.81080000  0.88990000  1.0
  C  C165  1  0.39760000  0.74060000  0.86540000  1.0
  C  C166  1  0.54720000  0.92820000  0.97440000  1.0
  C  C167  1  0.58780000  0.97530000  0.04610000  1.0
  C  C168  1  0.12990000  0.76180000  0.50690000  1.0
  C  C169  1  0.10060000  0.80900000  0.52340000  1.0
  C  C170  1  0.04190000  0.78970000  0.53180000  1.0
  C  C171  1  0.01850000  0.83570000  0.54880000  1.0
  C  C172  1  0.05450000  0.90420000  0.55910000  1.0
  C  C173  1  0.11010000  0.92090000  0.54940000  1.0
  C  C174  1  0.13460000  0.87520000  0.53220000  1.0
  C  C175  1  0.02560000  0.95380000  0.57280000  1.0
  C  C176  1  0.95390000  0.92920000  0.54170000  1.0
  C  C177  1  0.74510000  0.23820000  0.36810000  1.0
  C  C178  1  0.71440000  0.19100000  0.29160000  1.0
  C  C179  1  0.74210000  0.21030000  0.25220000  1.0
  C  C180  1  0.71310000  0.16430000  0.18280000  1.0
  C  C181  1  0.65490000  0.09580000  0.15030000  1.0
  C  C182  1  0.62850000  0.07910000  0.18920000  1.0
  C  C183  1  0.65700000  0.12480000  0.25940000  1.0
  C  C184  1  0.61900000  0.04620000  0.07180000  1.0
  C  C185  1  0.61250000  0.07080000  0.02470000  1.0
  C  C186  1  0.87010000  0.37700000  0.63190000  1.0
  C  C187  1  0.89940000  0.42280000  0.70840000  1.0
  C  C188  1  0.95810000  0.48990000  0.74780000  1.0
  C  C189  1  0.98150000  0.53030000  0.81720000  1.0
  C  C190  1  0.94550000  0.50460000  0.84970000  1.0
  C  C191  1  0.88990000  0.43930000  0.81080000  1.0
  C  C192  1  0.86540000  0.39760000  0.74060000  1.0
  C  C193  1  0.97440000  0.54720000  0.92820000  1.0
  C  C194  1  0.04610000  0.58780000  0.97530000  1.0
  C  C195  1  0.25490000  0.62300000  0.49310000  1.0
  C  C196  1  0.28560000  0.57720000  0.47660000  1.0
  C  C197  1  0.25790000  0.51010000  0.46820000  1.0
  C  C198  1  0.28690000  0.46970000  0.45120000  1.0
  C  C199  1  0.34510000  0.49540000  0.44090000  1.0
  C  C200  1  0.37150000  0.56070000  0.45060000  1.0
  C  C201  1  0.34300000  0.60240000  0.46780000  1.0
  C  C202  1  0.38100000  0.45280000  0.42720000  1.0
  C  C203  1  0.38750000  0.41220000  0.45830000  1.0
  C  C204  1  0.63190000  0.87010000  0.37700000  1.0
  C  C205  1  0.70840000  0.89940000  0.42280000  1.0
  C  C206  1  0.74780000  0.95810000  0.48990000  1.0
  C  C207  1  0.81720000  0.98150000  0.53030000  1.0
  C  C208  1  0.84970000  0.94550000  0.50460000  1.0
  C  C209  1  0.81080000  0.88990000  0.43930000  1.0
  C  C210  1  0.74060000  0.86540000  0.39760000  1.0
  C  C211  1  0.92820000  0.97440000  0.54720000  1.0
  C  C212  1  0.97530000  0.04610000  0.58780000  1.0
  C  C213  1  0.49310000  0.25490000  0.62300000  1.0
  C  C214  1  0.47660000  0.28560000  0.57720000  1.0
  C  C215  1  0.46820000  0.25790000  0.51010000  1.0
  C  C216  1  0.45120000  0.28690000  0.46970000  1.0
  C  C217  1  0.44090000  0.34510000  0.49540000  1.0
  C  C218  1  0.45060000  0.37150000  0.56070000  1.0
  C  C219  1  0.46780000  0.34300000  0.60240000  1.0
  C  C220  1  0.42720000  0.38100000  0.45280000  1.0
  C  C221  1  0.45830000  0.38750000  0.41220000  1.0
  C  C222  1  0.50690000  0.12990000  0.76180000  1.0
  C  C223  1  0.52340000  0.10060000  0.80900000  1.0
  C  C224  1  0.53180000  0.04190000  0.78970000  1.0
  C  C225  1  0.54880000  0.01850000  0.83570000  1.0
  C  C226  1  0.55910000  0.05450000  0.90420000  1.0
  C  C227  1  0.54940000  0.11010000  0.92090000  1.0
  C  C228  1  0.53220000  0.13460000  0.87520000  1.0
  C  C229  1  0.57280000  0.02560000  0.95380000  1.0
  C  C230  1  0.54170000  0.95390000  0.92920000  1.0
  C  C231  1  0.36810000  0.74510000  0.23820000  1.0
  C  C232  1  0.29160000  0.71440000  0.19100000  1.0
  C  C233  1  0.25220000  0.74210000  0.21030000  1.0
  C  C234  1  0.18280000  0.71310000  0.16430000  1.0
  C  C235  1  0.15030000  0.65490000  0.09580000  1.0
  C  C236  1  0.18920000  0.62850000  0.07910000  1.0
  C  C237  1  0.25940000  0.65700000  0.12480000  1.0
  C  C238  1  0.07180000  0.61900000  0.04620000  1.0
  C  C239  1  0.02470000  0.61250000  0.07080000  1.0
  C  C240  1  0.76180000  0.63190000  0.25490000  1.0
  C  C241  1  0.80900000  0.70840000  0.28560000  1.0
  C  C242  1  0.78970000  0.74780000  0.25790000  1.0
  C  C243  1  0.83570000  0.81720000  0.28690000  1.0
  C  C244  1  0.90420000  0.84970000  0.34510000  1.0
  C  C245  1  0.92090000  0.81080000  0.37150000  1.0
  C  C246  1  0.87520000  0.74060000  0.34300000  1.0
  C  C247  1  0.95380000  0.92820000  0.38100000  1.0
  C  C248  1  0.92920000  0.97530000  0.38750000  1.0
  C  C249  1  0.23820000  0.49310000  0.87010000  1.0
  C  C250  1  0.19100000  0.47660000  0.89940000  1.0
  C  C251  1  0.21030000  0.46820000  0.95810000  1.0
  C  C252  1  0.16430000  0.45120000  0.98150000  1.0
  C  C253  1  0.09580000  0.44090000  0.94550000  1.0
  C  C254  1  0.07910000  0.45060000  0.88990000  1.0
  C  C255  1  0.12480000  0.46780000  0.86540000  1.0
  C  C256  1  0.04620000  0.42720000  0.97440000  1.0
  C  C257  1  0.07080000  0.45830000  0.04610000  1.0
  C  C258  1  0.37700000  0.50690000  0.74510000  1.0
  C  C259  1  0.42280000  0.52340000  0.71440000  1.0
  C  C260  1  0.48990000  0.53180000  0.74210000  1.0
  C  C261  1  0.53030000  0.54880000  0.71310000  1.0
  C  C262  1  0.50460000  0.55910000  0.65490000  1.0
  C  C263  1  0.43930000  0.54940000  0.62850000  1.0
  C  C264  1  0.39760000  0.53220000  0.65700000  1.0
  C  C265  1  0.54720000  0.57280000  0.61900000  1.0
  C  C266  1  0.58780000  0.54170000  0.61250000  1.0
  C  C267  1  0.62300000  0.36810000  0.12990000  1.0
  C  C268  1  0.57720000  0.29160000  0.10060000  1.0
  C  C269  1  0.51010000  0.25220000  0.04190000  1.0
  C  C270  1  0.46970000  0.18280000  0.01850000  1.0
  C  C271  1  0.49540000  0.15030000  0.05450000  1.0
  C  C272  1  0.56070000  0.18920000  0.11010000  1.0
  C  C273  1  0.60240000  0.25940000  0.13460000  1.0
  C  C274  1  0.45280000  0.07180000  0.02560000  1.0
  C  C275  1  0.41220000  0.02470000  0.95390000  1.0
  C  C276  1  0.87010000  0.23820000  0.49310000  1.0
  C  C277  1  0.89940000  0.19100000  0.47660000  1.0
  C  C278  1  0.95810000  0.21030000  0.46820000  1.0
  C  C279  1  0.98150000  0.16430000  0.45120000  1.0
  C  C280  1  0.94550000  0.09580000  0.44090000  1.0
  C  C281  1  0.88990000  0.07910000  0.45060000  1.0
  C  C282  1  0.86540000  0.12480000  0.46780000  1.0
  C  C283  1  0.97440000  0.04620000  0.42720000  1.0
  C  C284  1  0.04610000  0.07080000  0.45830000  1.0
  C  C285  1  0.25490000  0.76180000  0.63190000  1.0
  C  C286  1  0.28560000  0.80900000  0.70840000  1.0
  C  C287  1  0.25790000  0.78970000  0.74780000  1.0
  C  C288  1  0.28690000  0.83570000  0.81720000  1.0
  C  C289  1  0.34510000  0.90420000  0.84970000  1.0
  C  C290  1  0.37150000  0.92090000  0.81080000  1.0
  C  C291  1  0.34300000  0.87520000  0.74060000  1.0
  C  C292  1  0.38100000  0.95380000  0.92820000  1.0
  C  C293  1  0.38750000  0.92920000  0.97530000  1.0
  C  C294  1  0.12990000  0.62300000  0.36810000  1.0
  C  C295  1  0.10060000  0.57720000  0.29160000  1.0
  C  C296  1  0.04190000  0.51010000  0.25220000  1.0
  C  C297  1  0.01850000  0.46970000  0.18280000  1.0
  C  C298  1  0.05450000  0.49540000  0.15030000  1.0
  C  C299  1  0.11010000  0.56070000  0.18920000  1.0
  C  C300  1  0.13460000  0.60240000  0.25940000  1.0
  C  C301  1  0.02560000  0.45280000  0.07180000  1.0
  C  C302  1  0.95390000  0.41220000  0.02470000  1.0
  C  C303  1  0.74510000  0.37700000  0.50690000  1.0
  C  C304  1  0.71440000  0.42280000  0.52340000  1.0
  C  C305  1  0.74210000  0.48990000  0.53180000  1.0
  C  C306  1  0.71310000  0.53030000  0.54880000  1.0
  C  C307  1  0.65490000  0.50460000  0.55910000  1.0
  C  C308  1  0.62850000  0.43930000  0.54940000  1.0
  C  C309  1  0.65700000  0.39760000  0.53220000  1.0
  C  C310  1  0.61900000  0.54720000  0.57280000  1.0
  C  C311  1  0.61250000  0.58780000  0.54170000  1.0
  C  C312  1  0.36810000  0.12990000  0.62300000  1.0
  C  C313  1  0.29160000  0.10060000  0.57720000  1.0
  C  C314  1  0.25220000  0.04190000  0.51010000  1.0
  C  C315  1  0.18280000  0.01850000  0.46970000  1.0
  C  C316  1  0.15030000  0.05450000  0.49540000  1.0
  C  C317  1  0.18920000  0.11010000  0.56070000  1.0
  C  C318  1  0.25940000  0.13460000  0.60240000  1.0
  C  C319  1  0.07180000  0.02560000  0.45280000  1.0
  C  C320  1  0.02470000  0.95390000  0.41220000  1.0
  C  C321  1  0.50690000  0.74510000  0.37700000  1.0
  C  C322  1  0.52340000  0.71440000  0.42280000  1.0
  C  C323  1  0.53180000  0.74210000  0.48990000  1.0
  C  C324  1  0.54880000  0.71310000  0.53030000  1.0
  C  C325  1  0.55910000  0.65490000  0.50460000  1.0
  C  C326  1  0.54940000  0.62850000  0.43930000  1.0
  C  C327  1  0.53220000  0.65700000  0.39760000  1.0
  C  C328  1  0.57280000  0.61900000  0.54720000  1.0
  C  C329  1  0.54170000  0.61250000  0.58780000  1.0
  C  C330  1  0.49310000  0.87010000  0.23820000  1.0
  C  C331  1  0.47660000  0.89940000  0.19100000  1.0
  C  C332  1  0.46820000  0.95810000  0.21030000  1.0
  C  C333  1  0.45120000  0.98150000  0.16430000  1.0
  C  C334  1  0.44090000  0.94550000  0.09580000  1.0
  C  C335  1  0.45060000  0.88990000  0.07910000  1.0
  C  C336  1  0.46780000  0.86540000  0.12480000  1.0
  C  C337  1  0.42720000  0.97440000  0.04620000  1.0
  C  C338  1  0.45830000  0.04610000  0.07080000  1.0
  C  C339  1  0.63190000  0.25490000  0.76180000  1.0
  C  C340  1  0.70840000  0.28560000  0.80900000  1.0
  C  C341  1  0.74780000  0.25790000  0.78970000  1.0
  C  C342  1  0.81720000  0.28690000  0.83570000  1.0
  C  C343  1  0.84970000  0.34510000  0.90420000  1.0
  C  C344  1  0.81080000  0.37150000  0.92090000  1.0
  C  C345  1  0.74060000  0.34300000  0.87520000  1.0
  C  C346  1  0.92820000  0.38100000  0.95380000  1.0
  C  C347  1  0.97530000  0.38750000  0.92920000  1.0
  O  O348  1  0.29764000  0.39682000  0.79916000  1.0
  O  O349  1  0.21615000  0.39868000  0.71727000  1.0
  O  O350  1  0.70236000  0.50152000  0.09918000  1.0
  O  O351  1  0.78385000  0.50112000  0.18253000  1.0
  O  O352  1  0.59766000  0.49848000  0.20084000  1.0
  O  O353  1  0.68141000  0.49888000  0.28273000  1.0
  O  O354  1  0.40234000  0.60318000  0.90082000  1.0
  O  O355  1  0.31859000  0.60132000  0.81747000  1.0
  O  O356  1  0.09918000  0.70236000  0.50152000  1.0
  O  O357  1  0.18253000  0.78385000  0.50112000  1.0
  O  O358  1  0.79916000  0.29764000  0.39682000  1.0
  O  O359  1  0.71727000  0.21615000  0.39868000  1.0
  O  O360  1  0.90082000  0.40234000  0.60318000  1.0
  O  O361  1  0.81747000  0.31859000  0.60132000  1.0
  O  O362  1  0.20084000  0.59766000  0.49848000  1.0
  O  O363  1  0.28273000  0.68141000  0.49888000  1.0
  O  O364  1  0.60318000  0.90082000  0.40234000  1.0
  O  O365  1  0.60132000  0.81747000  0.31859000  1.0
  O  O366  1  0.49848000  0.20084000  0.59766000  1.0
  O  O367  1  0.49888000  0.28273000  0.68141000  1.0
  O  O368  1  0.50152000  0.09918000  0.70236000  1.0
  O  O369  1  0.50112000  0.18253000  0.78385000  1.0
  O  O370  1  0.39682000  0.79916000  0.29764000  1.0
  O  O371  1  0.39868000  0.71727000  0.21615000  1.0
  O  O372  1  0.70236000  0.60318000  0.20084000  1.0
  O  O373  1  0.78385000  0.60132000  0.28273000  1.0
  O  O374  1  0.29764000  0.49848000  0.90082000  1.0
  O  O375  1  0.21615000  0.49888000  0.81747000  1.0
  O  O376  1  0.40234000  0.50152000  0.79916000  1.0
  O  O377  1  0.31859000  0.50112000  0.71727000  1.0
  O  O378  1  0.59766000  0.39682000  0.09918000  1.0
  O  O379  1  0.68141000  0.39868000  0.18253000  1.0
  O  O380  1  0.90082000  0.29764000  0.49848000  1.0
  O  O381  1  0.81747000  0.21615000  0.49888000  1.0
  O  O382  1  0.20084000  0.70236000  0.60318000  1.0
  O  O383  1  0.28273000  0.78385000  0.60132000  1.0
  O  O384  1  0.09918000  0.59766000  0.39682000  1.0
  O  O385  1  0.18253000  0.68141000  0.39868000  1.0
  O  O386  1  0.79916000  0.40234000  0.50152000  1.0
  O  O387  1  0.71727000  0.31859000  0.50112000  1.0
  O  O388  1  0.39682000  0.09918000  0.59766000  1.0
  O  O389  1  0.39868000  0.18253000  0.68141000  1.0
  O  O390  1  0.50152000  0.79916000  0.40234000  1.0
  O  O391  1  0.50112000  0.71727000  0.31859000  1.0
  O  O392  1  0.49848000  0.90082000  0.29764000  1.0
  O  O393  1  0.49888000  0.81747000  0.21615000  1.0
  O  O394  1  0.60318000  0.20084000  0.70236000  1.0
  O  O395  1  0.60132000  0.28273000  0.78385000  1.0
