# generated using pymatgen
data_Lu2CuH16C24(N2O5)4
_symmetry_space_group_name_H-M   'P 1'
_cell_length_a   6.06170000
_cell_length_b   12.36288357
_cell_length_c   23.52800000
_cell_angle_alpha   90.00000000
_cell_angle_beta   90.00000000
_cell_angle_gamma   94.24441528
_symmetry_Int_Tables_number   1
_chemical_formula_structural   Lu2CuH16C24(N2O5)4
_chemical_formula_sum   'Lu4 Cu2 H32 C48 N16 O40'
_cell_volume   1758.35474956
_cell_formula_units_Z   2
loop_
 _symmetry_equiv_pos_site_id
 _symmetry_equiv_pos_as_xyz
  1  'x, y, z'
loop_
 _atom_site_type_symbol
 _atom_site_label
 _atom_site_symmetry_multiplicity
 _atom_site_fract_x
 _atom_site_fract_y
 _atom_site_fract_z
 _atom_site_occupancy
  Lu  Lu0  1  0.00986000  0.60967000  0.67003000  1.0
  Lu  Lu1  1  0.49014000  0.89033000  0.17003000  1.0
  Lu  Lu2  1  0.99014000  0.39033000  0.32997000  1.0
  Lu  Lu3  1  0.50986000  0.10967000  0.82997000  1.0
  Cu  Cu4  1  0.50000000  0.00000000  0.50000000  1.0
  Cu  Cu5  1  0.00000000  0.50000000  0.00000000  1.0
  H  H6  1  0.66710000  0.58360000  0.60610000  1.0
  H  H7  1  0.68780000  0.67670000  0.57420000  1.0
  H  H8  1  0.95590000  0.37370000  0.61930000  1.0
  H  H9  1  0.01960000  0.47080000  0.59370000  1.0
  H  H10  1  0.38930000  0.92280000  0.70650000  1.0
  H  H11  1  0.53140000  0.77640000  0.66310000  1.0
  H  H12  1  0.67340000  0.14380000  0.60340000  1.0
  H  H13  1  0.94790000  0.12630000  0.67010000  1.0
  H  H14  1  0.83290000  0.91640000  0.10610000  1.0
  H  H15  1  0.81220000  0.82330000  0.07420000  1.0
  H  H16  1  0.54410000  0.12630000  0.11930000  1.0
  H  H17  1  0.48040000  0.02920000  0.09370000  1.0
  H  H18  1  0.11070000  0.57720000  0.20650000  1.0
  H  H19  1  0.96860000  0.72360000  0.16310000  1.0
  H  H20  1  0.82660000  0.35620000  0.10340000  1.0
  H  H21  1  0.55210000  0.37370000  0.17010000  1.0
  H  H22  1  0.33290000  0.41640000  0.39390000  1.0
  H  H23  1  0.31220000  0.32330000  0.42580000  1.0
  H  H24  1  0.04410000  0.62630000  0.38070000  1.0
  H  H25  1  0.98040000  0.52920000  0.40630000  1.0
  H  H26  1  0.61070000  0.07720000  0.29350000  1.0
  H  H27  1  0.46860000  0.22360000  0.33690000  1.0
  H  H28  1  0.32660000  0.85620000  0.39660000  1.0
  H  H29  1  0.05210000  0.87370000  0.32990000  1.0
  H  H30  1  0.16710000  0.08360000  0.89390000  1.0
  H  H31  1  0.18780000  0.17670000  0.92580000  1.0
  H  H32  1  0.45590000  0.87370000  0.88070000  1.0
  H  H33  1  0.51960000  0.97080000  0.90630000  1.0
  H  H34  1  0.88930000  0.42280000  0.79350000  1.0
  H  H35  1  0.03140000  0.27640000  0.83690000  1.0
  H  H36  1  0.17340000  0.64380000  0.89660000  1.0
  H  H37  1  0.44790000  0.62630000  0.82990000  1.0
  C  C38  1  0.09410000  0.76800000  0.77850000  1.0
  C  C39  1  0.90850000  0.82730000  0.75200000  1.0
  C  C40  1  0.84360000  0.92740000  0.77010000  1.0
  C  C41  1  0.98430000  0.01150000  0.80400000  1.0
  C  C42  1  0.52710000  0.90180000  0.71750000  1.0
  C  C43  1  0.60800000  0.81040000  0.69310000  1.0
  C  C44  1  0.19530000  0.83660000  0.59370000  1.0
  C  C45  1  0.03260000  0.92340000  0.59650000  1.0
  C  C46  1  0.86570000  0.93280000  0.55640000  1.0
  C  C47  1  0.81560000  0.85530000  0.50780000  1.0
  C  C48  1  0.76350000  0.08620000  0.60100000  1.0
  C  C49  1  0.92950000  0.07530000  0.64110000  1.0
  C  C50  1  0.40590000  0.73200000  0.27850000  1.0
  C  C51  1  0.59150000  0.67270000  0.25200000  1.0
  C  C52  1  0.65640000  0.57260000  0.27010000  1.0
  C  C53  1  0.51570000  0.48850000  0.30400000  1.0
  C  C54  1  0.97290000  0.59820000  0.21750000  1.0
  C  C55  1  0.89200000  0.68960000  0.19310000  1.0
  C  C56  1  0.30470000  0.66340000  0.09370000  1.0
  C  C57  1  0.46740000  0.57660000  0.09650000  1.0
  C  C58  1  0.63430000  0.56720000  0.05640000  1.0
  C  C59  1  0.68440000  0.64470000  0.00780000  1.0
  C  C60  1  0.73650000  0.41380000  0.10100000  1.0
  C  C61  1  0.57050000  0.42470000  0.14110000  1.0
  C  C62  1  0.90590000  0.23200000  0.22150000  1.0
  C  C63  1  0.09150000  0.17270000  0.24800000  1.0
  C  C64  1  0.15640000  0.07260000  0.22990000  1.0
  C  C65  1  0.01570000  0.98850000  0.19600000  1.0
  C  C66  1  0.47290000  0.09820000  0.28250000  1.0
  C  C67  1  0.39200000  0.18960000  0.30690000  1.0
  C  C68  1  0.80470000  0.16340000  0.40630000  1.0
  C  C69  1  0.96740000  0.07660000  0.40350000  1.0
  C  C70  1  0.13430000  0.06720000  0.44360000  1.0
  C  C71  1  0.18440000  0.14470000  0.49220000  1.0
  C  C72  1  0.23650000  0.91380000  0.39900000  1.0
  C  C73  1  0.07050000  0.92470000  0.35890000  1.0
  C  C74  1  0.59410000  0.26800000  0.72150000  1.0
  C  C75  1  0.40850000  0.32730000  0.74800000  1.0
  C  C76  1  0.34360000  0.42740000  0.72990000  1.0
  C  C77  1  0.48430000  0.51150000  0.69600000  1.0
  C  C78  1  0.02710000  0.40180000  0.78250000  1.0
  C  C79  1  0.10800000  0.31040000  0.80690000  1.0
  C  C80  1  0.69530000  0.33660000  0.90630000  1.0
  C  C81  1  0.53260000  0.42340000  0.90350000  1.0
  C  C82  1  0.36570000  0.43280000  0.94360000  1.0
  C  C83  1  0.31560000  0.35530000  0.99220000  1.0
  C  C84  1  0.26350000  0.58620000  0.89900000  1.0
  C  C85  1  0.42950000  0.57530000  0.85890000  1.0
  N  N86  1  0.79200000  0.77030000  0.71171000  1.0
  N  N87  1  0.64280000  0.96000000  0.75630000  1.0
  N  N88  1  0.06310000  0.99420000  0.63940000  1.0
  N  N89  1  0.73450000  0.01470000  0.55950000  1.0
  N  N90  1  0.70800000  0.72970000  0.21171000  1.0
  N  N91  1  0.85720000  0.54000000  0.25630000  1.0
  N  N92  1  0.43690000  0.50580000  0.13940000  1.0
  N  N93  1  0.76550000  0.48530000  0.05950000  1.0
  N  N94  1  0.20800000  0.22970000  0.28829000  1.0
  N  N95  1  0.35720000  0.04000000  0.24370000  1.0
  N  N96  1  0.93690000  0.00580000  0.36060000  1.0
  N  N97  1  0.26550000  0.98530000  0.44050000  1.0
  N  N98  1  0.29200000  0.27030000  0.78829000  1.0
  N  N99  1  0.14280000  0.46000000  0.74370000  1.0
  N  N100  1  0.56310000  0.49420000  0.86060000  1.0
  N  N101  1  0.23450000  0.51470000  0.94050000  1.0
  O  O102  1  0.15970000  0.69100000  0.74969000  1.0
  O  O103  1  0.74990000  0.64080000  0.59966000  1.0
  O  O104  1  0.15810000  0.79530000  0.82669000  1.0
  O  O105  1  0.97870000  0.44150000  0.62500000  1.0
  O  O106  1  0.88040000  0.06880000  0.83724000  1.0
  O  O107  1  0.18630000  0.02200000  0.79357000  1.0
  O  O108  1  0.35670000  0.85240000  0.56220000  1.0
  O  O109  1  0.15840000  0.75690000  0.62686000  1.0
  O  O110  1  0.90870000  0.77120000  0.50480000  1.0
  O  O111  1  0.67660000  0.88610000  0.47160000  1.0
  O  O112  1  0.34030000  0.80900000  0.24969000  1.0
  O  O113  1  0.75010000  0.85920000  0.09966000  1.0
  O  O114  1  0.34190000  0.70470000  0.32669000  1.0
  O  O115  1  0.52130000  0.05850000  0.12500000  1.0
  O  O116  1  0.61960000  0.43120000  0.33724000  1.0
  O  O117  1  0.31370000  0.47800000  0.29357000  1.0
  O  O118  1  0.14330000  0.64760000  0.06220000  1.0
  O  O119  1  0.34160000  0.74310000  0.12686000  1.0
  O  O120  1  0.59130000  0.72880000  0.00480000  1.0
  O  O121  1  0.82340000  0.61390000  0.97160000  1.0
  O  O122  1  0.84030000  0.30900000  0.25031000  1.0
  O  O123  1  0.25010000  0.35920000  0.40034000  1.0
  O  O124  1  0.84190000  0.20470000  0.17331000  1.0
  O  O125  1  0.02130000  0.55850000  0.37500000  1.0
  O  O126  1  0.11960000  0.93120000  0.16276000  1.0
  O  O127  1  0.81370000  0.97800000  0.20643000  1.0
  O  O128  1  0.64330000  0.14760000  0.43780000  1.0
  O  O129  1  0.84160000  0.24310000  0.37314000  1.0
  O  O130  1  0.09130000  0.22880000  0.49520000  1.0
  O  O131  1  0.32340000  0.11390000  0.52840000  1.0
  O  O132  1  0.65970000  0.19100000  0.75031000  1.0
  O  O133  1  0.24990000  0.14080000  0.90034000  1.0
  O  O134  1  0.65810000  0.29530000  0.67331000  1.0
  O  O135  1  0.47870000  0.94150000  0.87500000  1.0
  O  O136  1  0.38040000  0.56880000  0.66276000  1.0
  O  O137  1  0.68630000  0.52200000  0.70643000  1.0
  O  O138  1  0.85670000  0.35240000  0.93780000  1.0
  O  O139  1  0.65840000  0.25690000  0.87314000  1.0
  O  O140  1  0.40870000  0.27120000  0.99520000  1.0
  O  O141  1  0.17660000  0.38610000  0.02840000  1.0
