# generated using pymatgen
data_CuH9C11N3O4
_symmetry_space_group_name_H-M   'P 1'
_cell_length_a   10.20560000
_cell_length_b   10.81930000
_cell_length_c   13.09467733
_cell_angle_alpha   91.51030262
_cell_angle_beta   112.93476556
_cell_angle_gamma   90.00000000
_symmetry_Int_Tables_number   1
_chemical_formula_structural   CuH9C11N3O4
_chemical_formula_sum   'Cu4 H36 C44 N12 O16'
_cell_volume   1331.03728023
_cell_formula_units_Z   4
loop_
 _symmetry_equiv_pos_site_id
 _symmetry_equiv_pos_as_xyz
  1  'x, y, z'
loop_
 _atom_site_type_symbol
 _atom_site_label
 _atom_site_symmetry_multiplicity
 _atom_site_fract_x
 _atom_site_fract_y
 _atom_site_fract_z
 _atom_site_occupancy
  Cu  Cu0  1  0.83042000  0.26132000  0.60494000  1.0
  Cu  Cu1  1  0.22548000  0.23868000  0.39506000  1.0
  Cu  Cu2  1  0.77452000  0.76132000  0.60494000  1.0
  Cu  Cu3  1  0.16958000  0.73868000  0.39506000  1.0
  H  H4  1  0.60030000  0.40270000  0.01420000  1.0
  H  H5  1  0.24620000  0.95430000  0.54420000  1.0
  H  H6  1  0.23130000  0.21980000  0.80120000  1.0
  H  H7  1  0.22640000  0.82960000  0.84660000  1.0
  H  H8  1  0.00340000  0.20630000  0.48200000  1.0
  H  H9  1  0.33490000  0.02960000  0.30400000  1.0
  H  H10  1  0.64300000  0.00100000  0.08120000  1.0
  H  H11  1  0.37980000  0.67040000  0.15340000  1.0
  H  H12  1  0.52140000  0.29370000  0.51800000  1.0
  H  H13  1  0.24050000  0.06100000  0.68520000  1.0
  H  H14  1  0.09840000  0.66640000  0.73360000  1.0
  H  H15  1  0.44470000  0.56100000  0.68520000  1.0
  H  H16  1  0.75950000  0.93900000  0.31480000  1.0
  H  H17  1  0.47860000  0.70630000  0.48200000  1.0
  H  H18  1  0.35700000  0.99900000  0.91880000  1.0
  H  H19  1  0.36480000  0.83360000  0.26640000  1.0
  H  H20  1  0.41390000  0.90270000  0.01420000  1.0
  H  H21  1  0.96910000  0.52960000  0.30400000  1.0
  H  H22  1  0.58610000  0.09730000  0.98580000  1.0
  H  H23  1  0.70200000  0.54570000  0.45580000  1.0
  H  H24  1  0.75380000  0.04570000  0.45580000  1.0
  H  H25  1  0.29800000  0.45430000  0.54420000  1.0
  H  H26  1  0.56180000  0.49900000  0.91880000  1.0
  H  H27  1  0.76870000  0.78020000  0.19880000  1.0
  H  H28  1  0.43010000  0.28020000  0.19880000  1.0
  H  H29  1  0.90160000  0.33360000  0.26640000  1.0
  H  H30  1  0.56990000  0.71980000  0.80120000  1.0
  H  H31  1  0.39970000  0.59730000  0.98580000  1.0
  H  H32  1  0.03090000  0.47040000  0.69600000  1.0
  H  H33  1  0.66510000  0.97040000  0.69600000  1.0
  H  H34  1  0.99660000  0.79370000  0.51800000  1.0
  H  H35  1  0.55530000  0.43900000  0.31480000  1.0
  H  H36  1  0.77360000  0.17040000  0.15340000  1.0
  H  H37  1  0.43820000  0.50100000  0.08120000  1.0
  H  H38  1  0.63520000  0.16640000  0.73360000  1.0
  H  H39  1  0.62020000  0.32960000  0.84660000  1.0
  C  C40  1  0.68680000  0.79040000  0.21300000  1.0
  C  C41  1  0.54420000  0.27460000  0.81480000  1.0
  C  C42  1  0.93500000  0.56760000  0.35320000  1.0
  C  C43  1  0.77780000  0.57800000  0.44200000  1.0
  C  C44  1  0.54780000  0.01690000  0.36520000  1.0
  C  C45  1  0.19430000  0.67620000  0.74720000  1.0
  C  C46  1  0.47380000  0.70960000  0.78700000  1.0
  C  C47  1  0.39950000  0.61270000  0.71880000  1.0
  C  C48  1  0.41190000  0.78960000  0.83380000  1.0
  C  C49  1  0.44070000  0.09190000  0.69960000  1.0
  C  C50  1  0.80570000  0.32380000  0.25280000  1.0
  C  C51  1  0.66420000  0.07800000  0.44200000  1.0
  C  C52  1  0.81740000  0.51690000  0.36520000  1.0
  C  C53  1  0.72940000  0.22540000  0.18520000  1.0
  C  C54  1  0.55290000  0.17620000  0.74720000  1.0
  C  C55  1  0.58180000  0.93240000  0.64680000  1.0
  C  C56  1  0.74110000  0.40810000  0.30040000  1.0
  C  C57  1  0.47450000  0.54540000  0.03420000  1.0
  C  C58  1  0.47150000  0.77780000  0.52040000  1.0
  C  C59  1  0.95110000  0.72220000  0.47960000  1.0
  C  C60  1  0.45220000  0.98310000  0.63480000  1.0
  C  C61  1  0.44030000  0.95460000  0.96580000  1.0
  C  C62  1  0.41820000  0.06760000  0.35320000  1.0
  C  C63  1  0.31930000  0.11270000  0.71880000  1.0
  C  C64  1  0.27060000  0.77460000  0.81480000  1.0
  C  C65  1  0.57810000  0.71040000  0.16620000  1.0
  C  C66  1  0.25890000  0.59190000  0.69960000  1.0
  C  C67  1  0.52550000  0.45460000  0.96580000  1.0
  C  C68  1  0.55970000  0.04540000  0.03420000  1.0
  C  C69  1  0.60050000  0.38730000  0.28120000  1.0
  C  C70  1  0.33580000  0.92200000  0.55800000  1.0
  C  C71  1  0.22220000  0.42200000  0.55800000  1.0
  C  C72  1  0.52850000  0.22220000  0.47960000  1.0
  C  C73  1  0.18260000  0.48310000  0.63480000  1.0
  C  C74  1  0.45580000  0.72540000  0.18520000  1.0
  C  C75  1  0.42190000  0.28960000  0.83380000  1.0
  C  C76  1  0.55930000  0.90810000  0.30040000  1.0
  C  C77  1  0.04890000  0.27780000  0.52040000  1.0
  C  C78  1  0.31320000  0.20960000  0.78700000  1.0
  C  C79  1  0.68070000  0.88730000  0.28120000  1.0
  C  C80  1  0.58810000  0.21040000  0.16620000  1.0
  C  C81  1  0.06500000  0.43240000  0.64680000  1.0
  C  C82  1  0.52620000  0.29040000  0.21300000  1.0
  C  C83  1  0.44710000  0.82380000  0.25280000  1.0
  N  N84  1  0.84190000  0.68100000  0.49840000  1.0
  N  N85  1  0.72530000  0.47600000  0.71260000  1.0
  N  N86  1  0.65650000  0.18100000  0.49840000  1.0
  N  N87  1  0.40910000  0.17000000  0.41020000  1.0
  N  N88  1  0.01270000  0.02400000  0.28740000  1.0
  N  N89  1  0.99890000  0.33000000  0.58980000  1.0
  N  N90  1  0.59090000  0.83000000  0.58980000  1.0
  N  N91  1  0.15810000  0.31900000  0.50160000  1.0
  N  N92  1  0.98730000  0.97600000  0.71260000  1.0
  N  N93  1  0.34350000  0.81900000  0.50160000  1.0
  N  N94  1  0.27470000  0.52400000  0.28740000  1.0
  N  N95  1  0.00110000  0.67000000  0.41020000  1.0
  O  O96  1  0.96620000  0.98900000  0.61580000  1.0
  O  O97  1  0.10450000  0.90020000  0.28320000  1.0
  O  O98  1  0.50440000  0.11690000  0.09840000  1.0
  O  O99  1  0.80740000  0.39170000  0.72460000  1.0
  O  O100  1  0.17870000  0.40020000  0.28320000  1.0
  O  O101  1  0.08280000  0.10830000  0.27540000  1.0
  O  O102  1  0.89550000  0.09980000  0.71680000  1.0
  O  O103  1  0.91720000  0.89170000  0.72460000  1.0
  O  O104  1  0.59400000  0.61690000  0.09840000  1.0
  O  O105  1  0.40600000  0.38310000  0.90160000  1.0
  O  O106  1  0.35040000  0.51100000  0.38420000  1.0
  O  O107  1  0.64960000  0.48900000  0.61580000  1.0
  O  O108  1  0.82130000  0.59980000  0.71680000  1.0
  O  O109  1  0.03380000  0.01100000  0.38420000  1.0
  O  O110  1  0.49560000  0.88310000  0.90160000  1.0
  O  O111  1  0.19260000  0.60830000  0.27540000  1.0
