data_image0
_chemical_formula_structural       Cu12H90C120N24
_chemical_formula_sum              "Cu12 H90 C120 N24"
_cell_length_a       30.8512
_cell_length_b       34.1336
_cell_length_c       34.8344
_cell_angle_alpha    89.4604
_cell_angle_beta     88.9057
_cell_angle_gamma    89.7983

_symmetry_space_group_name_H-M    "P 1"
_symmetry_int_tables_number       1

loop_
  _symmetry_equiv_pos_as_xyz
  'x, y, z'

loop_
  _atom_site_type_symbol
  _atom_site_label
  _atom_site_symmetry_multiplicity
  _atom_site_fract_x
  _atom_site_fract_y
  _atom_site_fract_z
  _atom_site_occupancy
  Cu  Cu1       1.0  0.90866  0.81278  0.81060  1.0000
  Cu  Cu2       1.0  0.82351  0.86601  0.78374  1.0000
  Cu  Cu3       1.0  0.80653  0.79515  0.84989  1.0000
  Cu  Cu4       1.0  0.09763  0.79243  0.19846  1.0000
  Cu  Cu5       1.0  0.18394  0.85283  0.19331  1.0000
  Cu  Cu6       1.0  0.16815  0.78047  0.12569  1.0000
  Cu  Cu7       1.0  0.15136  0.22905  0.77800  1.0000
  Cu  Cu8       1.0  0.21512  0.15082  0.79138  1.0000
  Cu  Cu9       1.0  0.20831  0.22660  0.85802  1.0000
  Cu  Cu10      1.0  0.84732  0.21528  0.22555  1.0000
  Cu  Cu11      1.0  0.80110  0.12730  0.22202  1.0000
  Cu  Cu12      1.0  0.77767  0.20083  0.15505  1.0000
  H   H1        1.0  0.97713  0.84172  0.74560  1.0000
  H   H2        1.0  0.86765  0.90839  0.70799  1.0000
  H   H3        1.0  0.83194  0.71591  0.89829  1.0000
  H   H4        1.0  0.95857  0.74252  0.85305  1.0000
  H   H5        1.0  0.75753  0.93121  0.81856  1.0000
  H   H6        1.0  0.73148  0.83975  0.90054  1.0000
  H   H7        1.0  0.05118  0.82802  0.27390  1.0000
  H   H8        1.0  0.16095  0.90393  0.26982  1.0000
  H   H9        1.0  0.13205  0.69740  0.09456  1.0000
  H   H10       1.0  0.03981  0.71497  0.18605  1.0000
  H   H11       1.0  0.26276  0.89744  0.14807  1.0000
  H   H12       1.0  0.24120  0.80981  0.06409  1.0000
  H   H13       1.0  0.10275  0.20108  0.70216  1.0000
  H   H14       1.0  0.18431  0.10108  0.71725  1.0000
  H   H15       1.0  0.15097  0.28943  0.90734  1.0000
  H   H16       1.0  0.07423  0.28791  0.80611  1.0000
  H   H17       1.0  0.27942  0.09443  0.84078  1.0000
  H   H18       1.0  0.26865  0.18696  0.92208  1.0000
  H   H19       1.0  0.91345  0.19864  0.29488  1.0000
  H   H20       1.0  0.85269  0.08647  0.29264  1.0000
  H   H21       1.0  0.81353  0.26928  0.09618  1.0000
  H   H22       1.0  0.90535  0.28345  0.18568  1.0000
  H   H23       1.0  0.74465  0.05871  0.18293  1.0000
  H   H24       1.0  0.71264  0.14991  0.10350  1.0000
  H   H25       1.0  0.52499  0.04234  0.03399  1.0000
  H   H26       1.0  0.52992  0.93929  0.96404  1.0000
  H   H27       1.0  0.47276  0.02345  0.94458  1.0000
  H   H28       1.0  0.46700  0.95800  0.05061  1.0000
  H   H29       1.0  0.64823  0.99202  0.00133  1.0000
  H   H30       1.0  0.34914  0.99175  0.99477  1.0000
  H   H31       1.0  0.09300  0.03924  0.52189  1.0000
  H   H32       1.0  0.97331  0.97463  0.52812  1.0000
  H   H33       1.0  0.08862  0.97690  0.46684  1.0000
  H   H34       1.0  0.96856  0.04061  0.48034  1.0000
  H   H35       1.0  0.03881  0.00466  0.63153  1.0000
  H   H36       1.0  0.01785  0.01369  0.36751  1.0000
  H   H37       1.0  0.02660  0.50948  0.03751  1.0000
  H   H38       1.0  0.91238  0.52143  0.96893  1.0000
  H   H39       1.0  0.90554  0.45988  0.02585  1.0000
  H   H40       1.0  0.03168  0.46605  0.97102  1.0000
  H   H41       1.0  0.97232  0.62336  0.01615  1.0000
  H   H42       1.0  0.97029  0.35446  0.98937  1.0000
  H   H43       1.0  0.91333  0.93100  0.65723  1.0000
  H   H44       1.0  0.01389  0.94000  0.64326  1.0000
  H   H45       1.0  0.99409  0.89014  0.68839  1.0000
  H   H46       1.0  0.93622  0.96582  0.59592  1.0000
  H   H47       1.0  0.13189  0.92863  0.33318  1.0000
  H   H48       1.0  0.03529  0.94541  0.35882  1.0000
  H   H49       1.0  0.04429  0.88948  0.32009  1.0000
  H   H50       1.0  0.12060  0.96898  0.39521  1.0000
  H   H51       1.0  0.15725  0.08275  0.65033  1.0000
  H   H52       1.0  0.05808  0.07634  0.63310  1.0000
  H   H53       1.0  0.07862  0.13607  0.66436  1.0000
  H   H54       1.0  0.13699  0.04377  0.58939  1.0000
  H   H55       1.0  0.88863  0.07789  0.35758  1.0000
  H   H56       1.0  0.98966  0.08234  0.36492  1.0000
  H   H57       1.0  0.95642  0.13836  0.33170  1.0000
  H   H58       1.0  0.92012  0.04505  0.41712  1.0000
  H   H59       1.0  0.86593  0.65946  0.92797  1.0000
  H   H60       1.0  0.96155  0.63793  0.95023  1.0000
  H   H61       1.0  0.95695  0.68461  0.90127  1.0000
  H   H62       1.0  0.87689  0.59311  0.96333  1.0000
  H   H63       1.0  0.84906  0.32429  0.06553  1.0000
  H   H64       1.0  0.94636  0.35003  0.06136  1.0000
  H   H65       1.0  0.92303  0.32360  0.12293  1.0000
  H   H66       1.0  0.86652  0.38755  0.02532  1.0000
  H   H67       1.0  0.09370  0.63957  0.08146  1.0000
  H   H68       1.0  0.99428  0.62113  0.08499  1.0000
  H   H69       1.0  0.02016  0.65867  0.13861  1.0000
  H   H70       1.0  0.07047  0.57784  0.04695  1.0000
  H   H71       1.0  0.10381  0.33918  0.92908  1.0000
  H   H72       1.0  0.00401  0.35432  0.92236  1.0000
  H   H73       1.0  0.03934  0.32720  0.86453  1.0000
  H   H74       1.0  0.07429  0.39815  0.96518  1.0000
  H   H75       1.0  0.67058  0.88105  0.92144  1.0000
  H   H76       1.0  0.66310  0.97180  0.93592  1.0000
  H   H77       1.0  0.70856  0.95350  0.88098  1.0000
  H   H78       1.0  0.60395  0.90303  0.95736  1.0000
  H   H79       1.0  0.33834  0.07042  0.88171  1.0000
  H   H80       1.0  0.34151  0.05977  0.97149  1.0000
  H   H81       1.0  0.30512  0.11930  0.94941  1.0000
  H   H82       1.0  0.40089  0.03078  0.90642  1.0000
  H   H83       1.0  0.65806  0.10480  0.08110  1.0000
  H   H84       1.0  0.65863  0.01401  0.06547  1.0000
  H   H85       1.0  0.70105  0.03437  0.12007  1.0000
  H   H86       1.0  0.59604  0.07992  0.04399  1.0000
  H   H87       1.0  0.32525  0.91585  0.10817  1.0000
  H   H88       1.0  0.33659  0.92530  0.01852  1.0000
  H   H89       1.0  0.29191  0.87027  0.03955  1.0000
  H   H90       1.0  0.39165  0.95200  0.08540  1.0000
  C   C1        1.0  0.94494  0.85370  0.74188  1.0000
  C   C2        1.0  0.93223  0.88043  0.71431  1.0000
  C   C3        1.0  0.88866  0.88770  0.72228  1.0000
  C   C4        1.0  0.85906  0.72849  0.88243  1.0000
  C   C5        1.0  0.90205  0.71636  0.88292  1.0000
  C   C6        1.0  0.92415  0.74262  0.85959  1.0000
  C   C7        1.0  0.75604  0.90335  0.83360  1.0000
  C   C8        1.0  0.73147  0.89455  0.86604  1.0000
  C   C9        1.0  0.74231  0.85626  0.87552  1.0000
  C   C10       1.0  0.08239  0.84100  0.26725  1.0000
  C   C11       1.0  0.10080  0.87213  0.28567  1.0000
  C   C12       1.0  0.13900  0.87982  0.26544  1.0000
  C   C13       1.0  0.11571  0.70726  0.12047  1.0000
  C   C14       1.0  0.07838  0.69177  0.13744  1.0000
  C   C15       1.0  0.06811  0.71662  0.16729  1.0000
  C   C16       1.0  0.25277  0.87106  0.13381  1.0000
  C   C17       1.0  0.26595  0.85883  0.09764  1.0000
  C   C18       1.0  0.24135  0.82616  0.09052  1.0000
  C   C19       1.0  0.12892  0.18182  0.71053  1.0000
  C   C20       1.0  0.13851  0.14558  0.69543  1.0000
  C   C21       1.0  0.17102  0.13042  0.71823  1.0000
  C   C22       1.0  0.13919  0.28497  0.87868  1.0000
  C   C23       1.0  0.10138  0.29978  0.86301  1.0000
  C   C24       1.0  0.09958  0.28375  0.82683  1.0000
  C   C25       1.0  0.27313  0.12230  0.85432  1.0000
  C   C26       1.0  0.28576  0.13335  0.89056  1.0000
  C   C27       1.0  0.26745  0.16978  0.89619  1.0000
  C   C28       1.0  0.89105  0.17497  0.29004  1.0000
  C   C29       1.0  0.89148  0.13838  0.30717  1.0000
  C   C30       1.0  0.85960  0.11734  0.28902  1.0000
  C   C31       1.0  0.83037  0.26801  0.12312  1.0000
  C   C32       1.0  0.86711  0.28877  0.13300  1.0000
  C   C33       1.0  0.87775  0.27498  0.16896  1.0000
  C   C34       1.0  0.74108  0.08684  0.16878  1.0000
  C   C35       1.0  0.71742  0.09444  0.13635  1.0000
  C   C36       1.0  0.72414  0.13373  0.12814  1.0000
  C   C37       1.0  0.54379  0.02006  0.01912  1.0000
  C   C38       1.0  0.52247  0.99073  0.99898  1.0000
  C   C39       1.0  0.54656  0.96180  0.97978  1.0000
  C   C40       1.0  0.59198  0.96251  0.97990  1.0000
  C   C41       1.0  0.61315  0.99162  0.00078  1.0000
  C   C42       1.0  0.58915  0.02028  0.02080  1.0000
  C   C43       1.0  0.47489  0.99061  0.99766  1.0000
  C   C44       1.0  0.45381  0.00910  0.96712  1.0000
  C   C45       1.0  0.40844  0.01045  0.96640  1.0000
  C   C46       1.0  0.38423  0.99132  0.99554  1.0000
  C   C47       1.0  0.40518  0.97178  0.02574  1.0000
  C   C48       1.0  0.45055  0.97242  0.02712  1.0000
  C   C49       1.0  0.06819  0.02416  0.53872  1.0000
  C   C50       1.0  0.03303  0.00682  0.52033  1.0000
  C   C51       1.0  0.00031  0.98820  0.54230  1.0000
  C   C52       1.0  0.00306  0.98596  0.58234  1.0000
  C   C53       1.0  0.03741  0.00474  0.60047  1.0000
  C   C54       1.0  0.06964  0.02438  0.57890  1.0000
  C   C55       1.0  0.02953  0.00927  0.47822  1.0000
  C   C56       1.0  0.06142  0.99221  0.45429  1.0000
  C   C57       1.0  0.05652  0.99249  0.41435  1.0000
  C   C58       1.0  0.02135  0.01273  0.39841  1.0000
  C   C59       1.0  0.98978  0.03046  0.42201  1.0000
  C   C60       1.0  0.99334  0.02766  0.46193  1.0000
  C   C61       1.0  0.00187  0.52776  0.02470  1.0000
  C   C62       1.0  0.96870  0.51061  0.00349  1.0000
  C   C63       1.0  0.93705  0.53449  0.98644  1.0000
  C   C64       1.0  0.93920  0.57535  0.98971  1.0000
  C   C65       1.0  0.97103  0.59184  0.01283  1.0000
  C   C66       1.0  0.00243  0.56829  0.03033  1.0000
  C   C67       1.0  0.96819  0.46780  0.99820  1.0000
  C   C68       1.0  0.93274  0.44552  0.01164  1.0000
  C   C69       1.0  0.93400  0.40454  0.00952  1.0000
  C   C70       1.0  0.96942  0.38614  0.99125  1.0000
  C   C71       1.0  0.00441  0.40823  0.97673  1.0000
  C   C72       1.0  0.00422  0.44894  0.98131  1.0000
  C   C73       1.0  0.95998  0.89782  0.68712  1.0000
  C   C74       1.0  0.94725  0.92360  0.66043  1.0000
  C   C75       1.0  0.98006  0.94322  0.63587  1.0000
  C   C76       1.0  0.96956  0.96474  0.60515  1.0000
  C   C77       1.0  0.07853  0.89536  0.31540  1.0000
  C   C78       1.0  0.09740  0.92313  0.33597  1.0000
  C   C79       1.0  0.07017  0.94694  0.36196  1.0000
  C   C80       1.0  0.08621  0.96944  0.38946  1.0000
  C   C81       1.0  0.11126  0.12493  0.66809  1.0000
  C   C82       1.0  0.12412  0.09322  0.64878  1.0000
  C   C83       1.0  0.09221  0.07161  0.62647  1.0000
  C   C84       1.0  0.10341  0.04666  0.59864  1.0000
  C   C85       1.0  0.92551  0.12333  0.33236  1.0000
  C   C86       1.0  0.92005  0.09187  0.35493  1.0000
  C   C87       1.0  0.95723  0.07497  0.37512  1.0000
  C   C88       1.0  0.95215  0.05035  0.40488  1.0000
  C   C89       1.0  0.92184  0.68625  0.90349  1.0000
  C   C90       1.0  0.90100  0.66006  0.92584  1.0000
  C   C91       1.0  0.92701  0.63245  0.94866  1.0000
  C   C92       1.0  0.91053  0.60105  0.96689  1.0000
  C   C93       1.0  0.89215  0.31501  0.11124  1.0000
  C   C94       1.0  0.88074  0.32982  0.07720  1.0000
  C   C95       1.0  0.91221  0.35378  0.05524  1.0000
  C   C96       1.0  0.90047  0.38081  0.02945  1.0000
  C   C97       1.0  0.05168  0.66189  0.12460  1.0000
  C   C98       1.0  0.06177  0.63876  0.09494  1.0000
  C   C99       1.0  0.02793  0.61448  0.07801  1.0000
  C   C100      1.0  0.03714  0.58659  0.05247  1.0000
  C   C101      1.0  0.06923  0.32309  0.87999  1.0000
  C   C102      1.0  0.07344  0.34041  0.91399  1.0000
  C   C103      1.0  0.03645  0.36132  0.93156  1.0000
  C   C104      1.0  0.04191  0.38875  0.95810  1.0000
  C   C105      1.0  0.70473  0.92266  0.88794  1.0000
  C   C106      1.0  0.67631  0.91182  0.91539  1.0000
  C   C107      1.0  0.65222  0.94164  0.93749  1.0000
  C   C108      1.0  0.61671  0.93255  0.95823  1.0000
  C   C109      1.0  0.30836  0.11002  0.91981  1.0000
  C   C110      1.0  0.33283  0.07880  0.91133  1.0000
  C   C111      1.0  0.35325  0.05596  0.94221  1.0000
  C   C112      1.0  0.38688  0.03214  0.93516  1.0000
  C   C113      1.0  0.69460  0.06497  0.11373  1.0000
  C   C114      1.0  0.66635  0.07440  0.08654  1.0000
  C   C115      1.0  0.64570  0.04355  0.06401  1.0000
  C   C116      1.0  0.61075  0.05105  0.04303  1.0000
  C   C117      1.0  0.29403  0.87916  0.06926  1.0000
  C   C118      1.0  0.32125  0.90779  0.07844  1.0000
  C   C119      1.0  0.34601  0.92875  0.04813  1.0000
  C   C120      1.0  0.38019  0.95095  0.05620  1.0000
  N   N1        1.0  0.87704  0.86620  0.75346  1.0000
  N   N2        1.0  0.91063  0.84574  0.76490  1.0000
  N   N3        1.0  0.89583  0.76906  0.84615  1.0000
  N   N4        1.0  0.85668  0.76076  0.85982  1.0000
  N   N5        1.0  0.77228  0.84362  0.84978  1.0000
  N   N6        1.0  0.78013  0.87175  0.82453  1.0000
  N   N7        1.0  0.14230  0.85410  0.23630  1.0000
  N   N8        1.0  0.10833  0.83093  0.23755  1.0000
  N   N9        1.0  0.09754  0.74555  0.16746  1.0000
  N   N10       1.0  0.12593  0.74014  0.13940  1.0000
  N   N11       1.0  0.21484  0.81951  0.12099  1.0000
  N   N12       1.0  0.22154  0.84660  0.14705  1.0000
  N   N13       1.0  0.17959  0.15685  0.74561  1.0000
  N   N14       1.0  0.15454  0.18766  0.74067  1.0000
  N   N15       1.0  0.13457  0.26069  0.82162  1.0000
  N   N16       1.0  0.15792  0.26087  0.85277  1.0000
  N   N17       1.0  0.24516  0.17978  0.86474  1.0000
  N   N18       1.0  0.24820  0.15108  0.83959  1.0000
  N   N19       1.0  0.84165  0.14078  0.26229  1.0000
  N   N20       1.0  0.86021  0.17534  0.26329  1.0000
  N   N21       1.0  0.84889  0.24740  0.17957  1.0000
  N   N22       1.0  0.82086  0.24271  0.15205  1.0000
  N   N23       1.0  0.75079  0.14830  0.15466  1.0000
  N   N24       1.0  0.76079  0.12009  0.17924  1.0000
