data_image0
_chemical_formula_structural       Cu12H72C108N36
_chemical_formula_sum              "Cu12 H72 C108 N36"
_cell_length_a       29.9709
_cell_length_b       33.9924
_cell_length_c       34.3228
_cell_angle_alpha    96.7201
_cell_angle_beta     90.9496
_cell_angle_gamma    90.0564

_symmetry_space_group_name_H-M    "P 1"
_symmetry_int_tables_number       1

loop_
  _symmetry_equiv_pos_as_xyz
  'x, y, z'

loop_
  _atom_site_type_symbol
  _atom_site_label
  _atom_site_symmetry_multiplicity
  _atom_site_fract_x
  _atom_site_fract_y
  _atom_site_fract_z
  _atom_site_occupancy
  Cu  Cu1       1.0  0.87647  0.82247  0.07595  1.0000
  Cu  Cu2       1.0  0.86385  0.91975  0.09837  1.0000
  Cu  Cu3       1.0  0.90458  0.86037  0.16707  1.0000
  Cu  Cu4       1.0  0.11674  0.34688  0.41003  1.0000
  Cu  Cu5       1.0  0.13577  0.44027  0.39449  1.0000
  Cu  Cu6       1.0  0.09874  0.36959  0.31912  1.0000
  Cu  Cu7       1.0  0.37330  0.67522  0.92557  1.0000
  Cu  Cu8       1.0  0.34697  0.58200  0.89120  1.0000
  Cu  Cu9       1.0  0.38561  0.64867  0.82984  1.0000
  Cu  Cu10      1.0  0.62413  0.15328  0.59199  1.0000
  Cu  Cu11      1.0  0.65429  0.06549  0.61822  1.0000
  Cu  Cu12      1.0  0.61838  0.14166  0.68696  1.0000
  H   H1        1.0  0.28240  0.42780  0.59501  1.0000
  H   H2        1.0  0.33760  0.32141  0.53860  1.0000
  H   H3        1.0  0.41043  0.28485  0.57370  1.0000
  H   H4        1.0  0.45498  0.32903  0.68891  1.0000
  H   H5        1.0  0.41555  0.39829  0.72867  1.0000
  H   H6        1.0  0.31643  0.46053  0.67070  1.0000
  H   H7        1.0  0.72152  0.94349  0.89711  1.0000
  H   H8        1.0  0.66456  0.84213  0.93927  1.0000
  H   H9        1.0  0.59009  0.80408  0.90131  1.0000
  H   H10       1.0  0.53996  0.84052  0.79469  1.0000
  H   H11       1.0  0.58139  0.90552  0.76287  1.0000
  H   H12       1.0  0.68654  0.96980  0.82604  1.0000
  H   H13       1.0  0.79216  0.06426  0.41450  1.0000
  H   H14       1.0  0.83377  0.18073  0.45864  1.0000
  H   H15       1.0  0.90333  0.21767  0.42244  1.0000
  H   H16       1.0  0.95634  0.16405  0.31490  1.0000
  H   H17       1.0  0.92576  0.08651  0.28263  1.0000
  H   H18       1.0  0.83223  0.02504  0.34512  1.0000
  H   H19       1.0  0.21101  0.54586  0.09024  1.0000
  H   H20       1.0  0.16355  0.65593  0.05861  1.0000
  H   H21       1.0  0.09277  0.69399  0.09751  1.0000
  H   H22       1.0  0.03880  0.65097  0.19839  1.0000
  H   H23       1.0  0.07344  0.57861  0.22330  1.0000
  H   H24       1.0  0.17245  0.51370  0.15596  1.0000
  H   H25       1.0  0.79847  0.80714  0.00902  1.0000
  H   H26       1.0  0.78811  0.93337  0.03118  1.0000
  H   H27       1.0  0.98038  0.79432  0.18424  1.0000
  H   H28       1.0  0.95037  0.75278  0.06410  1.0000
  H   H29       1.0  0.86814  0.00310  0.15471  1.0000
  H   H30       1.0  0.90836  0.92883  0.24133  1.0000
  H   H31       1.0  0.19015  0.34014  0.47942  1.0000
  H   H32       1.0  0.21014  0.46230  0.46488  1.0000
  H   H33       1.0  0.02922  0.29698  0.28947  1.0000
  H   H34       1.0  0.04664  0.27411  0.40882  1.0000
  H   H35       1.0  0.13309  0.51563  0.34490  1.0000
  H   H36       1.0  0.09738  0.42741  0.25017  1.0000
  H   H37       1.0  0.30096  0.68856  0.99529  1.0000
  H   H38       1.0  0.27373  0.56625  0.95758  1.0000
  H   H39       1.0  0.46161  0.71359  0.81422  1.0000
  H   H40       1.0  0.44949  0.74411  0.93821  1.0000
  H   H41       1.0  0.34159  0.50523  0.82540  1.0000
  H   H42       1.0  0.37887  0.58984  0.74870  1.0000
  H   H43       1.0  0.69140  0.15665  0.51944  1.0000
  H   H44       1.0  0.72593  0.04125  0.54849  1.0000
  H   H45       1.0  0.54568  0.21125  0.71211  1.0000
  H   H46       1.0  0.54800  0.22089  0.58886  1.0000
  H   H47       1.0  0.66034  0.99752  0.67689  1.0000
  H   H48       1.0  0.62668  0.09379  0.76304  1.0000
  H   H49       1.0  0.75681  0.92322  0.96058  1.0000
  H   H50       1.0  0.72696  0.83980  0.97359  1.0000
  H   H51       1.0  0.26306  0.34536  0.50795  1.0000
  H   H52       1.0  0.25557  0.43492  0.52992  1.0000
  H   H53       1.0  0.24722  0.57020  0.02967  1.0000
  H   H54       1.0  0.22643  0.65781  0.02651  1.0000
  H   H55       1.0  0.76271  0.15423  0.49057  1.0000
  H   H56       1.0  0.76551  0.06368  0.47988  1.0000
  H   H57       1.0  0.00425  0.71588  0.17899  1.0000
  H   H58       1.0  0.02923  0.72603  0.09480  1.0000
  H   H59       1.0  0.47557  0.24861  0.60000  1.0000
  H   H60       1.0  0.49602  0.27404  0.68696  1.0000
  H   H61       1.0  0.96759  0.25363  0.39673  1.0000
  H   H62       1.0  0.99055  0.22385  0.31188  1.0000
  H   H63       1.0  0.50527  0.77341  0.81640  1.0000
  H   H64       1.0  0.51684  0.78224  0.90569  1.0000
  H   H65       1.0  0.87485  0.98256  0.28592  1.0000
  H   H66       1.0  0.89174  0.04285  0.22836  1.0000
  H   H67       1.0  0.37306  0.45822  0.77207  1.0000
  H   H68       1.0  0.35347  0.51544  0.71163  1.0000
  H   H69       1.0  0.62576  0.95893  0.72558  1.0000
  H   H70       1.0  0.65137  0.02273  0.79250  1.0000
  H   H71       1.0  0.13025  0.47635  0.21047  1.0000
  H   H72       1.0  0.11020  0.54431  0.27414  1.0000
  C   C1        1.0  0.33710  0.39064  0.61333  1.0000
  C   C2        1.0  0.35219  0.40549  0.65114  1.0000
  C   C3        1.0  0.38458  0.38524  0.67001  1.0000
  C   C4        1.0  0.40303  0.35038  0.65104  1.0000
  C   C5        1.0  0.38852  0.33607  0.61364  1.0000
  C   C6        1.0  0.35504  0.35601  0.59489  1.0000
  C   C7        1.0  0.30426  0.40262  0.58872  1.0000
  C   C8        1.0  0.33273  0.34729  0.55965  1.0000
  C   C9        1.0  0.41306  0.30280  0.60188  1.0000
  C   C10       1.0  0.43607  0.32534  0.66161  1.0000
  C   C11       1.0  0.39215  0.40596  0.70641  1.0000
  C   C12       1.0  0.34100  0.43845  0.67625  1.0000
  C   C13       1.0  0.66530  0.90533  0.87457  1.0000
  C   C14       1.0  0.64865  0.91778  0.83956  1.0000
  C   C15       1.0  0.61428  0.89690  0.81898  1.0000
  C   C16       1.0  0.59526  0.86403  0.83363  1.0000
  C   C17       1.0  0.61139  0.85211  0.86832  1.0000
  C   C18       1.0  0.64706  0.87244  0.88850  1.0000
  C   C19       1.0  0.69970  0.91859  0.89993  1.0000
  C   C20       1.0  0.67087  0.86583  0.92162  1.0000
  C   C21       1.0  0.58605  0.82036  0.87621  1.0000
  C   C22       1.0  0.56045  0.83907  0.82076  1.0000
  C   C23       1.0  0.60600  0.91464  0.78560  1.0000
  C   C24       1.0  0.66028  0.94822  0.81851  1.0000
  C   C25       1.0  0.84236  0.10335  0.39294  1.0000
  C   C26       1.0  0.86018  0.08509  0.35784  1.0000
  C   C27       1.0  0.89076  0.10517  0.33750  1.0000
  C   C28       1.0  0.90467  0.14354  0.35251  1.0000
  C   C29       1.0  0.88747  0.16113  0.38740  1.0000
  C   C30       1.0  0.85582  0.14122  0.40739  1.0000
  C   C31       1.0  0.81066  0.09184  0.41806  1.0000
  C   C32       1.0  0.83206  0.15232  0.44073  1.0000
  C   C33       1.0  0.90838  0.19704  0.39636  1.0000
  C   C34       1.0  0.93565  0.16953  0.34050  1.0000
  C   C35       1.0  0.90208  0.08025  0.30459  1.0000
  C   C36       1.0  0.85383  0.04828  0.33720  1.0000
  C   C37       1.0  0.15896  0.58598  0.11602  1.0000
  C   C38       1.0  0.14110  0.57096  0.14884  1.0000
  C   C39       1.0  0.10873  0.59213  0.17079  1.0000
  C   C40       1.0  0.09286  0.62806  0.15949  1.0000
  C   C41       1.0  0.11006  0.64232  0.12678  1.0000
  C   C42       1.0  0.14385  0.62167  0.10549  1.0000
  C   C43       1.0  0.19173  0.57276  0.08993  1.0000
  C   C44       1.0  0.16788  0.62999  0.07374  1.0000
  C   C45       1.0  0.08703  0.67608  0.12100  1.0000
  C   C46       1.0  0.05983  0.65397  0.17355  1.0000
  C   C47       1.0  0.09804  0.57071  0.20101  1.0000
  C   C48       1.0  0.14911  0.53689  0.16585  1.0000
  C   C49       1.0  0.80323  0.83796  0.02027  1.0000
  C   C50       1.0  0.78085  0.87000  0.00831  1.0000
  C   C51       1.0  0.79838  0.90287  0.03117  1.0000
  C   C52       1.0  0.96499  0.78934  0.15534  1.0000
  C   C53       1.0  0.97703  0.76134  0.12473  1.0000
  C   C54       1.0  0.95008  0.76844  0.09341  1.0000
  C   C55       1.0  0.87846  0.97820  0.16960  1.0000
  C   C56       1.0  0.88887  0.97887  0.20899  1.0000
  C   C57       1.0  0.89816  0.93996  0.21431  1.0000
  C   C58       1.0  0.18853  0.36916  0.46951  1.0000
  C   C59       1.0  0.21297  0.40242  0.48389  1.0000
  C   C60       1.0  0.19827  0.43203  0.46241  1.0000
  C   C61       1.0  0.04031  0.29761  0.31969  1.0000
  C   C62       1.0  0.02600  0.27329  0.34667  1.0000
  C   C63       1.0  0.04869  0.28629  0.38117  1.0000
  C   C64       1.0  0.12427  0.48811  0.32736  1.0000
  C   C65       1.0  0.11527  0.48278  0.28754  1.0000
  C   C66       1.0  0.10689  0.44267  0.27852  1.0000
  C   C67       1.0  0.30156  0.65871  0.98039  1.0000
  C   C68       1.0  0.27584  0.62712  0.98855  1.0000
  C   C69       1.0  0.28807  0.59570  0.96146  1.0000
  C   C70       1.0  0.45111  0.71568  0.84439  1.0000
  C   C71       1.0  0.46803  0.74065  0.87600  1.0000
  C   C72       1.0  0.44510  0.73099  0.90813  1.0000
  C   C73       1.0  0.35155  0.53193  0.81351  1.0000
  C   C74       1.0  0.35938  0.53615  0.77459  1.0000
  C   C75       1.0  0.36972  0.57562  0.77402  1.0000
  C   C76       1.0  0.69336  0.12935  0.53270  1.0000
  C   C77       1.0  0.72056  0.09718  0.52182  1.0000
  C   C78       1.0  0.71058  0.06988  0.54730  1.0000
  C   C79       1.0  0.55314  0.20756  0.68117  1.0000
  C   C80       1.0  0.53378  0.22744  0.65233  1.0000
  C   C81       1.0  0.55379  0.21210  0.61779  1.0000
  C   C82       1.0  0.65166  0.02626  0.69171  1.0000
  C   C83       1.0  0.64480  0.03597  0.73143  1.0000
  C   C84       1.0  0.63538  0.07595  0.73606  1.0000
  C   C85       1.0  0.73568  0.89708  0.95699  1.0000
  C   C86       1.0  0.74442  0.86778  0.97896  1.0000
  C   C87       1.0  0.26914  0.37386  0.52490  1.0000
  C   C88       1.0  0.24732  0.40579  0.51535  1.0000
  C   C89       1.0  0.22902  0.59770  0.03613  1.0000
  C   C90       1.0  0.24057  0.62893  0.01791  1.0000
  C   C91       1.0  0.77186  0.12492  0.47728  1.0000
  C   C92       1.0  0.75409  0.09307  0.49068  1.0000
  C   C93       1.0  0.02405  0.71169  0.15267  1.0000
  C   C94       1.0  0.01368  0.73260  0.12298  1.0000
  C   C95       1.0  0.47299  0.26681  0.62801  1.0000
  C   C96       1.0  0.49967  0.25868  0.65779  1.0000
  C   C97       1.0  0.96657  0.23332  0.36986  1.0000
  C   C98       1.0  0.99322  0.24074  0.34055  1.0000
  C   C99       1.0  0.52013  0.78335  0.84484  1.0000
  C   C100      1.0  0.50416  0.77011  0.87708  1.0000
  C   C101      1.0  0.88186  0.01121  0.27644  1.0000
  C   C102      1.0  0.88884  0.01398  0.23848  1.0000
  C   C103      1.0  0.36467  0.46743  0.74368  1.0000
  C   C104      1.0  0.35767  0.50574  0.74041  1.0000
  C   C105      1.0  0.63575  0.97113  0.75502  1.0000
  C   C106      1.0  0.64557  0.00966  0.76253  1.0000
  C   C107      1.0  0.12189  0.50620  0.22277  1.0000
  C   C108      1.0  0.11445  0.51397  0.26120  1.0000
  N   N1        1.0  0.30181  0.37578  0.55609  1.0000
  N   N2        1.0  0.44220  0.29641  0.63118  1.0000
  N   N3        1.0  0.36574  0.43849  0.70980  1.0000
  N   N4        1.0  0.70343  0.89394  0.92827  1.0000
  N   N5        1.0  0.55466  0.81290  0.84723  1.0000
  N   N6        1.0  0.63397  0.94600  0.78570  1.0000
  N   N7        1.0  0.80456  0.12213  0.44704  1.0000
  N   N8        1.0  0.93793  0.20202  0.36782  1.0000
  N   N9        1.0  0.87925  0.04569  0.30470  1.0000
  N   N10       1.0  0.19759  0.60017  0.06460  1.0000
  N   N11       1.0  0.05581  0.68281  0.14938  1.0000
  N   N12       1.0  0.12301  0.53715  0.19776  1.0000
  N   N13       1.0  0.82948  0.89018  0.05563  1.0000
  N   N14       1.0  0.83279  0.85145  0.04856  1.0000
  N   N15       1.0  0.92311  0.79888  0.10520  1.0000
  N   N16       1.0  0.93245  0.81199  0.14200  1.0000
  N   N17       1.0  0.89320  0.91757  0.17946  1.0000
  N   N18       1.0  0.88100  0.94052  0.15265  1.0000
  N   N19       1.0  0.16721  0.41640  0.43619  1.0000
  N   N20       1.0  0.16107  0.37896  0.44087  1.0000
  N   N21       1.0  0.07486  0.31684  0.37465  1.0000
  N   N22       1.0  0.06941  0.32416  0.33810  1.0000
  N   N23       1.0  0.11093  0.42536  0.31175  1.0000
  N   N24       1.0  0.12174  0.45266  0.34102  1.0000
  N   N25       1.0  0.31945  0.60879  0.93835  1.0000
  N   N26       1.0  0.32796  0.64629  0.95018  1.0000
  N   N27       1.0  0.41602  0.70185  0.89585  1.0000
  N   N28       1.0  0.41988  0.69236  0.85782  1.0000
  N   N29       1.0  0.36848  0.59370  0.81102  1.0000
  N   N30       1.0  0.35720  0.56754  0.83473  1.0000
  N   N31       1.0  0.67955  0.08584  0.57236  1.0000
  N   N32       1.0  0.66894  0.12119  0.56325  1.0000
  N   N33       1.0  0.58324  0.18438  0.62622  1.0000
  N   N34       1.0  0.58249  0.18125  0.66402  1.0000
  N   N35       1.0  0.63610  0.08903  0.70054  1.0000
  N   N36       1.0  0.64628  0.05923  0.67395  1.0000
