data_image0
_chemical_formula_structural       Cu12H24C63N24
_chemical_formula_sum              "Cu12 H24 C63 N24"
_cell_length_a       20.8947
_cell_length_b       21.111
_cell_length_c       21.3818
_cell_angle_alpha    89.6992
_cell_angle_beta     90.0609
_cell_angle_gamma    89.76

_symmetry_space_group_name_H-M    "P 1"
_symmetry_int_tables_number       1

loop_
  _symmetry_equiv_pos_as_xyz
  'x, y, z'

loop_
  _atom_site_type_symbol
  _atom_site_label
  _atom_site_symmetry_multiplicity
  _atom_site_fract_x
  _atom_site_fract_y
  _atom_site_fract_z
  _atom_site_occupancy
  Cu  Cu1       1.0  0.75538  0.75562  0.86035  1.0000
  Cu  Cu2       1.0  0.87302  0.75489  0.75504  1.0000
  Cu  Cu3       1.0  0.75676  0.87359  0.75607  1.0000
  Cu  Cu4       1.0  0.75638  0.24150  0.13347  1.0000
  Cu  Cu5       1.0  0.87030  0.24589  0.24448  1.0000
  Cu  Cu6       1.0  0.75634  0.12694  0.24319  1.0000
  Cu  Cu7       1.0  0.24139  0.76110  0.13045  1.0000
  Cu  Cu8       1.0  0.12223  0.76579  0.23410  1.0000
  Cu  Cu9       1.0  0.24853  0.87144  0.24295  1.0000
  Cu  Cu10      1.0  0.23998  0.23751  0.87238  1.0000
  Cu  Cu11      1.0  0.12230  0.23579  0.76647  1.0000
  Cu  Cu12      1.0  0.24793  0.12839  0.75846  1.0000
  H   H1        1.0  0.80679  0.63848  0.94899  1.0000
  H   H2        1.0  0.95564  0.63800  0.81207  1.0000
  H   H3        1.0  0.64144  0.95765  0.81423  1.0000
  H   H4        1.0  0.63928  0.80828  0.94995  1.0000
  H   H5        1.0  0.95617  0.81062  0.63881  1.0000
  H   H6        1.0  0.81370  0.95583  0.63998  1.0000
  H   H7        1.0  0.80776  0.35939  0.04778  1.0000
  H   H8        1.0  0.95095  0.36447  0.19013  1.0000
  H   H9        1.0  0.64092  0.04236  0.18743  1.0000
  H   H10       1.0  0.64060  0.18659  0.04653  1.0000
  H   H11       1.0  0.95347  0.19190  0.36175  1.0000
  H   H12       1.0  0.81321  0.04581  0.36032  1.0000
  H   H13       1.0  0.19026  0.64101  0.04745  1.0000
  H   H14       1.0  0.03988  0.64724  0.18241  1.0000
  H   H15       1.0  0.36853  0.95085  0.18908  1.0000
  H   H16       1.0  0.35900  0.81345  0.04347  1.0000
  H   H17       1.0  0.04210  0.81942  0.35305  1.0000
  H   H18       1.0  0.19791  0.94871  0.36440  1.0000
  H   H19       1.0  0.18924  0.35851  0.95451  1.0000
  H   H20       1.0  0.04106  0.35617  0.81687  1.0000
  H   H21       1.0  0.36778  0.04750  0.81219  1.0000
  H   H22       1.0  0.35702  0.18304  0.95952  1.0000
  H   H23       1.0  0.04248  0.18337  0.64697  1.0000
  H   H24       1.0  0.19764  0.05208  0.63655  1.0000
  C   C1        1.0  0.83424  0.64617  0.90679  1.0000
  C   C2        1.0  0.89067  0.61649  0.89046  1.0000
  C   C3        1.0  0.91090  0.64589  0.83632  1.0000
  C   C4        1.0  0.64876  0.91302  0.83834  1.0000
  C   C5        1.0  0.61904  0.89292  0.89237  1.0000
  C   C6        1.0  0.64770  0.83610  0.90816  1.0000
  C   C7        1.0  0.91287  0.83732  0.64752  1.0000
  C   C8        1.0  0.89466  0.89289  0.61841  1.0000
  C   C9        1.0  0.83952  0.91206  0.64812  1.0000
  C   C10       1.0  0.83378  0.35248  0.09105  1.0000
  C   C11       1.0  0.88843  0.38379  0.10922  1.0000
  C   C12       1.0  0.90750  0.35519  0.16428  1.0000
  C   C13       1.0  0.64885  0.08591  0.16176  1.0000
  C   C14       1.0  0.61952  0.10447  0.10688  1.0000
  C   C15       1.0  0.64875  0.16017  0.08929  1.0000
  C   C16       1.0  0.91048  0.16499  0.35307  1.0000
  C   C17       1.0  0.89296  0.10948  0.38235  1.0000
  C   C18       1.0  0.83827  0.08982  0.35232  1.0000
  C   C19       1.0  0.16220  0.65094  0.08875  1.0000
  C   C20       1.0  0.10555  0.62236  0.10576  1.0000
  C   C21       1.0  0.08478  0.65402  0.15820  1.0000
  C   C22       1.0  0.35822  0.90874  0.16233  1.0000
  C   C23       1.0  0.38580  0.89112  0.10652  1.0000
  C   C24       1.0  0.35313  0.83804  0.08735  1.0000
  C   C25       1.0  0.08801  0.84206  0.34702  1.0000
  C   C26       1.0  0.11087  0.89273  0.38044  1.0000
  C   C27       1.0  0.16830  0.90848  0.35299  1.0000
  C   C28       1.0  0.16173  0.34936  0.91269  1.0000
  C   C29       1.0  0.10585  0.37936  0.89472  1.0000
  C   C30       1.0  0.08545  0.34830  0.84186  1.0000
  C   C31       1.0  0.35703  0.08920  0.83951  1.0000
  C   C32       1.0  0.38422  0.10593  0.89575  1.0000
  C   C33       1.0  0.35127  0.15890  0.91538  1.0000
  C   C34       1.0  0.08832  0.16024  0.65319  1.0000
  C   C35       1.0  0.11108  0.10929  0.61988  1.0000
  C   C36       1.0  0.16833  0.09281  0.64764  1.0000
  C   C37       1.0  0.00407  0.00130  0.50027  1.0000
  C   C38       1.0  0.99751  0.50148  0.99976  1.0000
  C   C39       1.0  0.50277  0.99825  0.00063  1.0000
  C   C40       1.0  0.92544  0.57585  0.92656  1.0000
  C   C41       1.0  0.95734  0.54134  0.95927  1.0000
  C   C42       1.0  0.92511  0.42725  0.07205  1.0000
  C   C43       1.0  0.95716  0.46184  0.03988  1.0000
  C   C44       1.0  0.06939  0.57795  0.06959  1.0000
  C   C45       1.0  0.03763  0.54244  0.03846  1.0000
  C   C46       1.0  0.06966  0.42431  0.93050  1.0000
  C   C47       1.0  0.03785  0.46020  0.96139  1.0000
  C   C48       1.0  0.57828  0.92730  0.92831  1.0000
  C   C49       1.0  0.54341  0.95879  0.96071  1.0000
  C   C50       1.0  0.42600  0.07074  0.93023  1.0000
  C   C51       1.0  0.46156  0.03855  0.96161  1.0000
  C   C52       1.0  0.57858  0.06956  0.07187  1.0000
  C   C53       1.0  0.54359  0.03778  0.04008  1.0000
  C   C54       1.0  0.42719  0.92597  0.07171  1.0000
  C   C55       1.0  0.46230  0.95800  0.04005  1.0000
  C   C56       1.0  0.93184  0.92938  0.57496  1.0000
  C   C57       1.0  0.96398  0.96125  0.54025  1.0000
  C   C58       1.0  0.07556  0.92965  0.42490  1.0000
  C   C59       1.0  0.04419  0.96156  0.46013  1.0000
  C   C60       1.0  0.07565  0.07267  0.57543  1.0000
  C   C61       1.0  0.04421  0.04093  0.54026  1.0000
  C   C62       1.0  0.93074  0.07314  0.42580  1.0000
  C   C63       1.0  0.96340  0.04137  0.46045  1.0000
  N   N1        1.0  0.86762  0.69085  0.82122  1.0000
  N   N2        1.0  0.82160  0.69090  0.86323  1.0000
  N   N3        1.0  0.69219  0.82312  0.86442  1.0000
  N   N4        1.0  0.69294  0.86928  0.82276  1.0000
  N   N5        1.0  0.82555  0.86912  0.69285  1.0000
  N   N6        1.0  0.86973  0.82408  0.69249  1.0000
  N   N7        1.0  0.86533  0.30913  0.17798  1.0000
  N   N8        1.0  0.82107  0.30754  0.13422  1.0000
  N   N9        1.0  0.69326  0.17402  0.13272  1.0000
  N   N10       1.0  0.69334  0.12951  0.17604  1.0000
  N   N11       1.0  0.82394  0.13243  0.30726  1.0000
  N   N12       1.0  0.86742  0.17771  0.30772  1.0000
  N   N13       1.0  0.12791  0.69914  0.17164  1.0000
  N   N14       1.0  0.17432  0.69735  0.13011  1.0000
  N   N15       1.0  0.30834  0.82477  0.13076  1.0000
  N   N16       1.0  0.31139  0.86714  0.17562  1.0000
  N   N17       1.0  0.17900  0.86820  0.30538  1.0000
  N   N18       1.0  0.13051  0.82837  0.30168  1.0000
  N   N19       1.0  0.12803  0.30212  0.82914  1.0000
  N   N20       1.0  0.17374  0.30269  0.87151  1.0000
  N   N21       1.0  0.30668  0.17298  0.87181  1.0000
  N   N22       1.0  0.31016  0.13122  0.82643  1.0000
  N   N23       1.0  0.17902  0.13294  0.69531  1.0000
  N   N24       1.0  0.13072  0.17339  0.69875  1.0000
