data_image0
_cell_length_a       32.6141
_cell_length_b       22.5703
_cell_length_c       18.3891
_cell_angle_alpha    90
_cell_angle_beta     93.0953
_cell_angle_gamma    90

_symmetry_space_group_name_H-M    "P 1"
_symmetry_int_tables_number       1

loop_
  _symmetry_equiv_pos_as_xyz
  'x, y, z'

loop_
  _atom_site_label
  _atom_site_occupancy
  _atom_site_fract_x
  _atom_site_fract_y
  _atom_site_fract_z
  _atom_site_thermal_displace_type
  _atom_site_B_iso_or_equiv
  _atom_site_type_symbol
  Zr1      1.0000 0.42641  0.00000  0.49932  Biso   1.000  Zr
  Zr2      1.0000 0.57358  0.00000  0.50067  Biso   1.000  Zr
  Zr3      1.0000 0.92642  0.50000  0.49942  Biso   1.000  Zr
  Zr4      1.0000 0.07358  0.50000  0.50066  Biso   1.000  Zr
  Zr5      1.0000 0.99759  0.42715  0.41102  Biso   1.000  Zr
  Zr6      1.0000 0.00241  0.42715  0.58906  Biso   1.000  Zr
  Zr7      1.0000 0.49760  0.92717  0.41093  Biso   1.000  Zr
  Zr8      1.0000 0.50239  0.92717  0.58906  Biso   1.000  Zr
  Zr9      1.0000 0.00241  0.57285  0.58906  Biso   1.000  Zr
  Zr10     1.0000 0.99759  0.57285  0.41102  Biso   1.000  Zr
  Zr11     1.0000 0.50239  0.07283  0.58906  Biso   1.000  Zr
  Zr12     1.0000 0.49760  0.07283  0.41093  Biso   1.000  Zr
  O1       1.0000 0.10335  0.43666  0.42270  Biso   1.000  O
  O2       1.0000 0.89664  0.43667  0.57739  Biso   1.000  O
  O3       1.0000 0.60342  0.93678  0.42277  Biso   1.000  O
  O4       1.0000 0.39656  0.93678  0.57722  Biso   1.000  O
  O5       1.0000 0.89664  0.56333  0.57739  Biso   1.000  O
  O6       1.0000 0.10335  0.56334  0.42270  Biso   1.000  O
  O7       1.0000 0.39656  0.06322  0.57722  Biso   1.000  O
  O8       1.0000 0.60342  0.06322  0.42277  Biso   1.000  O
  O9       1.0000 0.39222  0.06339  0.42080  Biso   1.000  O
  O10      1.0000 0.60777  0.06339  0.57919  Biso   1.000  O
  O11      1.0000 0.89225  0.56358  0.42086  Biso   1.000  O
  O12      1.0000 0.10775  0.56354  0.57924  Biso   1.000  O
  O13      1.0000 0.60777  0.93661  0.57919  Biso   1.000  O
  O14      1.0000 0.39222  0.93661  0.42080  Biso   1.000  O
  O15      1.0000 0.10775  0.43646  0.57924  Biso   1.000  O
  O16      1.0000 0.89225  0.43642  0.42086  Biso   1.000  O
  O17      1.0000 0.03766  0.41903  0.50028  Biso   1.000  O
  O18      1.0000 0.96233  0.41902  0.49979  Biso   1.000  O
  O19      1.0000 0.53765  0.91911  0.50028  Biso   1.000  O
  O20      1.0000 0.46234  0.91911  0.49971  Biso   1.000  O
  O21      1.0000 0.96233  0.58098  0.49979  Biso   1.000  O
  O22      1.0000 0.03766  0.58097  0.50028  Biso   1.000  O
  O23      1.0000 0.46234  0.08089  0.49971  Biso   1.000  O
  O24      1.0000 0.53765  0.08089  0.50028  Biso   1.000  O
  O25      1.0000 0.44163  0.11181  0.35931  Biso   1.000  O
  O26      1.0000 0.55836  0.11181  0.64069  Biso   1.000  O
  O27      1.0000 0.94171  0.61186  0.35930  Biso   1.000  O
  O28      1.0000 0.05829  0.61188  0.64074  Biso   1.000  O
  O29      1.0000 0.55836  0.88819  0.64069  Biso   1.000  O
  O30      1.0000 0.44163  0.88819  0.35931  Biso   1.000  O
  O31      1.0000 0.05829  0.38812  0.64074  Biso   1.000  O
  O32      1.0000 0.94171  0.38814  0.35930  Biso   1.000  O
  O33      1.0000 0.03473  0.50000  0.40268  Biso   1.000  O
  O34      1.0000 0.96526  0.50000  0.59739  Biso   1.000  O
  O35      1.0000 0.53476  0.00000  0.40254  Biso   1.000  O
  O36      1.0000 0.46523  0.00000  0.59746  Biso   1.000  O
  C1       1.0000 0.40386  0.09988  0.37330  Biso   1.000  C
  C2       1.0000 0.59613  0.09987  0.62670  Biso   1.000  C
  C3       1.0000 0.90392  0.60004  0.37337  Biso   1.000  C
  C4       1.0000 0.09608  0.60003  0.62670  Biso   1.000  C
  C5       1.0000 0.59613  0.90013  0.62670  Biso   1.000  C
  C6       1.0000 0.40386  0.90012  0.37330  Biso   1.000  C
  C7       1.0000 0.09608  0.39997  0.62670  Biso   1.000  C
  C8       1.0000 0.90392  0.39996  0.37337  Biso   1.000  C
  C9       1.0000 0.10776  0.33441  0.27040  Biso   1.000  C
  C10      1.0000 0.89223  0.33439  0.72966  Biso   1.000  C
  C11      1.0000 0.60787  0.83457  0.27048  Biso   1.000  C
  C12      1.0000 0.39213  0.83457  0.72951  Biso   1.000  C
  C13      1.0000 0.89223  0.66561  0.72966  Biso   1.000  C
  C14      1.0000 0.10776  0.66559  0.27040  Biso   1.000  C
  C15      1.0000 0.39213  0.16543  0.72951  Biso   1.000  C
  C16      1.0000 0.60787  0.16543  0.27048  Biso   1.000  C
  H1       1.0000 0.07522  0.32998  0.25524  Biso   1.000  H
  H2       1.0000 0.92477  0.32996  0.74484  Biso   1.000  H
  H3       1.0000 0.57534  0.83023  0.25524  Biso   1.000  H
  H4       1.0000 0.42466  0.83023  0.74475  Biso   1.000  H
  H5       1.0000 0.92477  0.67004  0.74484  Biso   1.000  H
  H6       1.0000 0.07522  0.67002  0.25524  Biso   1.000  H
  H7       1.0000 0.42466  0.16977  0.74475  Biso   1.000  H
  H8       1.0000 0.57534  0.16977  0.25524  Biso   1.000  H
  C17      1.0000 0.11985  0.36865  0.33159  Biso   1.000  C
  C18      1.0000 0.88014  0.36864  0.66847  Biso   1.000  C
  C19      1.0000 0.61997  0.86881  0.33166  Biso   1.000  C
  C20      1.0000 0.38003  0.86881  0.66834  Biso   1.000  C
  C21      1.0000 0.88014  0.63136  0.66847  Biso   1.000  C
  C22      1.0000 0.11985  0.63135  0.33159  Biso   1.000  C
  C23      1.0000 0.38003  0.13120  0.66834  Biso   1.000  C
  C24      1.0000 0.61997  0.13119  0.33166  Biso   1.000  C
  C25      1.0000 0.08921  0.40027  0.37474  Biso   1.000  C
  C26      1.0000 0.91079  0.40026  0.62534  Biso   1.000  C
  C27      1.0000 0.58930  0.90034  0.37483  Biso   1.000  C
  C28      1.0000 0.41069  0.90034  0.62516  Biso   1.000  C
  C29      1.0000 0.91079  0.59974  0.62534  Biso   1.000  C
  C30      1.0000 0.08921  0.59973  0.37474  Biso   1.000  C
  C31      1.0000 0.41069  0.09966  0.62516  Biso   1.000  C
  C32      1.0000 0.58930  0.09966  0.37483  Biso   1.000  C
  C33      1.0000 0.17923  0.31149  0.25039  Biso   1.000  C
  C34      1.0000 0.82075  0.31146  0.74962  Biso   1.000  C
  C35      1.0000 0.67933  0.81148  0.25066  Biso   1.000  C
  C36      1.0000 0.32067  0.81147  0.74935  Biso   1.000  C
  C37      1.0000 0.82075  0.68854  0.74962  Biso   1.000  C
  C38      1.0000 0.17923  0.68851  0.25039  Biso   1.000  C
  C39      1.0000 0.32067  0.18853  0.74935  Biso   1.000  C
  C40      1.0000 0.67933  0.18852  0.25066  Biso   1.000  C
  C41      1.0000 0.37116  0.13217  0.32955  Biso   1.000  C
  C42      1.0000 0.62883  0.13215  0.67045  Biso   1.000  C
  C43      1.0000 0.87127  0.63243  0.32965  Biso   1.000  C
  C44      1.0000 0.12873  0.63243  0.67040  Biso   1.000  C
  C45      1.0000 0.62883  0.86785  0.67045  Biso   1.000  C
  C46      1.0000 0.37116  0.86783  0.32955  Biso   1.000  C
  C47      1.0000 0.12873  0.36757  0.67040  Biso   1.000  C
  C48      1.0000 0.87127  0.36757  0.32965  Biso   1.000  C
  C49      1.0000 0.34975  0.19777  0.23001  Biso   1.000  C
  C50      1.0000 0.65023  0.19775  0.77001  Biso   1.000  C
  C51      1.0000 0.84981  0.69782  0.22990  Biso   1.000  C
  C52      1.0000 0.15020  0.69783  0.77013  Biso   1.000  C
  C53      1.0000 0.65023  0.80225  0.77001  Biso   1.000  C
  C54      1.0000 0.34975  0.80223  0.23001  Biso   1.000  C
  C55      1.0000 0.15020  0.30217  0.77013  Biso   1.000  C
  C56      1.0000 0.84981  0.30218  0.22990  Biso   1.000  C
  H9       1.0000 0.35745  0.22585  0.18461  Biso   1.000  H
  H10      1.0000 0.64254  0.22582  0.81541  Biso   1.000  H
  H11      1.0000 0.85746  0.72585  0.18443  Biso   1.000  H
  H12      1.0000 0.14255  0.72586  0.81560  Biso   1.000  H
  H13      1.0000 0.64254  0.77418  0.81541  Biso   1.000  H
  H14      1.0000 0.35745  0.77415  0.18461  Biso   1.000  H
  H15      1.0000 0.14255  0.27414  0.81560  Biso   1.000  H
  H16      1.0000 0.85746  0.27415  0.18443  Biso   1.000  H
  N1       1.0000 0.23555  0.26153  0.01697  Biso   1.000  N
  N2       1.0000 0.76445  0.26149  0.98304  Biso   1.000  N
  N3       1.0000 0.73544  0.76180  0.01705  Biso   1.000  N
  N4       1.0000 0.26456  0.76179  0.98296  Biso   1.000  N
  N5       1.0000 0.76445  0.73851  0.98304  Biso   1.000  N
  N6       1.0000 0.23555  0.73847  0.01697  Biso   1.000  N
  N7       1.0000 0.26456  0.23821  0.98296  Biso   1.000  N
  N8       1.0000 0.73544  0.23820  0.01705  Biso   1.000  N
  C57      1.0000 0.38072  0.16795  0.27037  Biso   1.000  C
  C58      1.0000 0.61926  0.16793  0.72964  Biso   1.000  C
  C59      1.0000 0.88081  0.66815  0.27036  Biso   1.000  C
  C60      1.0000 0.11920  0.66815  0.72967  Biso   1.000  C
  C61      1.0000 0.61926  0.83207  0.72964  Biso   1.000  C
  C62      1.0000 0.38072  0.83205  0.27037  Biso   1.000  C
  C63      1.0000 0.11920  0.33185  0.72967  Biso   1.000  C
  C64      1.0000 0.88081  0.33185  0.27036  Biso   1.000  C
  H17      1.0000 0.41264  0.17206  0.25686  Biso   1.000  H
  H18      1.0000 0.58734  0.17204  0.74315  Biso   1.000  H
  H19      1.0000 0.91273  0.67235  0.25687  Biso   1.000  H
  H20      1.0000 0.08728  0.67235  0.74317  Biso   1.000  H
  H21      1.0000 0.58734  0.82796  0.74315  Biso   1.000  H
  H22      1.0000 0.41264  0.82794  0.25686  Biso   1.000  H
  H23      1.0000 0.08728  0.32765  0.74317  Biso   1.000  H
  H24      1.0000 0.91273  0.32765  0.25687  Biso   1.000  H
  C65      1.0000 0.13717  0.30665  0.22988  Biso   1.000  C
  C66      1.0000 0.86281  0.30662  0.77015  Biso   1.000  C
  C67      1.0000 0.63728  0.80671  0.23008  Biso   1.000  C
  C68      1.0000 0.36272  0.80670  0.76992  Biso   1.000  C
  C69      1.0000 0.86281  0.69338  0.77015  Biso   1.000  C
  C70      1.0000 0.13717  0.69335  0.22988  Biso   1.000  C
  C71      1.0000 0.36272  0.19330  0.76992  Biso   1.000  C
  C72      1.0000 0.63728  0.19329  0.23008  Biso   1.000  C
  H25      1.0000 0.12762  0.27990  0.18273  Biso   1.000  H
  H26      1.0000 0.87236  0.27986  0.81730  Biso   1.000  H
  H27      1.0000 0.62775  0.77994  0.18293  Biso   1.000  H
  H28      1.0000 0.37226  0.77993  0.81706  Biso   1.000  H
  H29      1.0000 0.87236  0.72014  0.81730  Biso   1.000  H
  H30      1.0000 0.12762  0.72010  0.18273  Biso   1.000  H
  H31      1.0000 0.37226  0.22007  0.81706  Biso   1.000  H
  H32      1.0000 0.62775  0.22006  0.18293  Biso   1.000  H
  C73      1.0000 0.24394  0.25282  0.24513  Biso   1.000  C
  C74      1.0000 0.75604  0.25279  0.75488  Biso   1.000  C
  C75      1.0000 0.74398  0.75266  0.24521  Biso   1.000  C
  C76      1.0000 0.25602  0.75265  0.75481  Biso   1.000  C
  C77      1.0000 0.75604  0.74721  0.75488  Biso   1.000  C
  C78      1.0000 0.24394  0.74718  0.24513  Biso   1.000  C
  C79      1.0000 0.25602  0.24735  0.75481  Biso   1.000  C
  C80      1.0000 0.74398  0.24734  0.24521  Biso   1.000  C
  H33      1.0000 0.24538  0.25124  0.30435  Biso   1.000  H
  H34      1.0000 0.75460  0.25122  0.69566  Biso   1.000  H
  H35      1.0000 0.74547  0.75092  0.30442  Biso   1.000  H
  H36      1.0000 0.25454  0.75093  0.69560  Biso   1.000  H
  H37      1.0000 0.75460  0.74878  0.69566  Biso   1.000  H
  H38      1.0000 0.24538  0.74876  0.30435  Biso   1.000  H
  H39      1.0000 0.25454  0.24907  0.69560  Biso   1.000  H
  H40      1.0000 0.74547  0.24908  0.30442  Biso   1.000  H
  C81      1.0000 0.27363  0.22816  0.13128  Biso   1.000  C
  C82      1.0000 0.72636  0.22813  0.86873  Biso   1.000  C
  C83      1.0000 0.77362  0.72834  0.13121  Biso   1.000  C
  C84      1.0000 0.22638  0.72834  0.86880  Biso   1.000  C
  C85      1.0000 0.72636  0.77187  0.86873  Biso   1.000  C
  C86      1.0000 0.27363  0.77184  0.13128  Biso   1.000  C
  C87      1.0000 0.22638  0.27166  0.86880  Biso   1.000  C
  C88      1.0000 0.77362  0.27166  0.13121  Biso   1.000  C
  H41      1.0000 0.29694  0.20715  0.09998  Biso   1.000  H
  H42      1.0000 0.70305  0.20711  0.90004  Biso   1.000  H
  H43      1.0000 0.79695  0.70752  0.09976  Biso   1.000  H
  H44      1.0000 0.20306  0.70752  0.90026  Biso   1.000  H
  H45      1.0000 0.70305  0.79289  0.90004  Biso   1.000  H
  H46      1.0000 0.29694  0.79285  0.09998  Biso   1.000  H
  H47      1.0000 0.20306  0.29248  0.90026  Biso   1.000  H
  H48      1.0000 0.79695  0.29248  0.09976  Biso   1.000  H
  C89      1.0000 0.16179  0.37386  0.35207  Biso   1.000  C
  C90      1.0000 0.83821  0.37384  0.64797  Biso   1.000  C
  C91      1.0000 0.66190  0.87404  0.35215  Biso   1.000  C
  C92      1.0000 0.33809  0.87403  0.64786  Biso   1.000  C
  C93      1.0000 0.83821  0.62616  0.64797  Biso   1.000  C
  C94      1.0000 0.16179  0.62614  0.35207  Biso   1.000  C
  C95      1.0000 0.33809  0.12597  0.64786  Biso   1.000  C
  C96      1.0000 0.66190  0.12596  0.35215  Biso   1.000  C
  H49      1.0000 0.17078  0.40086  0.39921  Biso   1.000  H
  H50      1.0000 0.82922  0.40085  0.60084  Biso   1.000  H
  H51      1.0000 0.67089  0.90113  0.39922  Biso   1.000  H
  H52      1.0000 0.32910  0.90112  0.60079  Biso   1.000  H
  H53      1.0000 0.82922  0.59915  0.60084  Biso   1.000  H
  H54      1.0000 0.17078  0.59914  0.39921  Biso   1.000  H
  H55      1.0000 0.32910  0.09888  0.60079  Biso   1.000  H
  H56      1.0000 0.67089  0.09887  0.39922  Biso   1.000  H
  C97      1.0000 0.21090  0.28195  0.20851  Biso   1.000  C
  C98      1.0000 0.78908  0.28191  0.79149  Biso   1.000  C
  C99      1.0000 0.71094  0.78187  0.20874  Biso   1.000  C
  C100     1.0000 0.28906  0.78187  0.79127  Biso   1.000  C
  C101     1.0000 0.78908  0.71809  0.79149  Biso   1.000  C
  C102     1.0000 0.21090  0.71805  0.20851  Biso   1.000  C
  C103     1.0000 0.28906  0.21813  0.79127  Biso   1.000  C
  C104     1.0000 0.71094  0.21813  0.20874  Biso   1.000  C
  C105     1.0000 0.33005  0.12678  0.34763  Biso   1.000  C
  C106     1.0000 0.66993  0.12676  0.65238  Biso   1.000  C
  C107     1.0000 0.83018  0.62710  0.34780  Biso   1.000  C
  C108     1.0000 0.16982  0.62710  0.65223  Biso   1.000  C
  C109     1.0000 0.66993  0.87324  0.65238  Biso   1.000  C
  C110     1.0000 0.33005  0.87322  0.34763  Biso   1.000  C
  C111     1.0000 0.16982  0.37290  0.65223  Biso   1.000  C
  C112     1.0000 0.83018  0.37290  0.34780  Biso   1.000  C
  H57      1.0000 0.32290  0.09831  0.39291  Biso   1.000  H
  H58      1.0000 0.67708  0.09829  0.60710  Biso   1.000  H
  H59      1.0000 0.82307  0.59880  0.39326  Biso   1.000  H
  H60      1.0000 0.17693  0.59879  0.60677  Biso   1.000  H
  H61      1.0000 0.67708  0.90171  0.60710  Biso   1.000  H
  H62      1.0000 0.32290  0.90169  0.39291  Biso   1.000  H
  H63      1.0000 0.17693  0.40121  0.60677  Biso   1.000  H
  H64      1.0000 0.82307  0.40120  0.39326  Biso   1.000  H
  C113     1.0000 0.27526  0.22543  0.20735  Biso   1.000  C
  C114     1.0000 0.72472  0.22540  0.79267  Biso   1.000  C
  C115     1.0000 0.77529  0.72539  0.20727  Biso   1.000  C
  C116     1.0000 0.22472  0.72539  0.79274  Biso   1.000  C
  C117     1.0000 0.72472  0.77460  0.79267  Biso   1.000  C
  C118     1.0000 0.27526  0.77457  0.20735  Biso   1.000  C
  C119     1.0000 0.22472  0.27461  0.79274  Biso   1.000  C
  C120     1.0000 0.77529  0.27461  0.20727  Biso   1.000  C
  C121     1.0000 0.20927  0.28314  0.13214  Biso   1.000  C
  C122     1.0000 0.79072  0.28310  0.86787  Biso   1.000  C
  C123     1.0000 0.70923  0.78319  0.13238  Biso   1.000  C
  C124     1.0000 0.29078  0.78318  0.86764  Biso   1.000  C
  C125     1.0000 0.79072  0.71690  0.86787  Biso   1.000  C
  C126     1.0000 0.20927  0.71686  0.13214  Biso   1.000  C
  C127     1.0000 0.29078  0.21682  0.86764  Biso   1.000  C
  C128     1.0000 0.70923  0.21681  0.13238  Biso   1.000  C
  H65      1.0000 0.18450  0.30569  0.10130  Biso   1.000  H
  H66      1.0000 0.81550  0.30565  0.89869  Biso   1.000  H
  H67      1.0000 0.68440  0.80577  0.10172  Biso   1.000  H
  H68      1.0000 0.31560  0.80577  0.89830  Biso   1.000  H
  H69      1.0000 0.81550  0.69435  0.89869  Biso   1.000  H
  H70      1.0000 0.18450  0.69431  0.10130  Biso   1.000  H
  H71      1.0000 0.31560  0.19423  0.89830  Biso   1.000  H
  H72      1.0000 0.68440  0.19423  0.10172  Biso   1.000  H
  C129     1.0000 0.24053  0.25681  0.09380  Biso   1.000  C
  C130     1.0000 0.75946  0.25677  0.90621  Biso   1.000  C
  C131     1.0000 0.74047  0.75700  0.09388  Biso   1.000  C
  C132     1.0000 0.25954  0.75699  0.90613  Biso   1.000  C
  C133     1.0000 0.75946  0.74323  0.90621  Biso   1.000  C
  C134     1.0000 0.24053  0.74319  0.09380  Biso   1.000  C
  C135     1.0000 0.25954  0.24301  0.90613  Biso   1.000  C
  C136     1.0000 0.74047  0.24300  0.09388  Biso   1.000  C
  C137     1.0000 0.19102  0.34526  0.31238  Biso   1.000  C
  C138     1.0000 0.80898  0.34524  0.68763  Biso   1.000  C
  C139     1.0000 0.69113  0.84535  0.31257  Biso   1.000  C
  C140     1.0000 0.30887  0.84534  0.68744  Biso   1.000  C
  C141     1.0000 0.80898  0.65476  0.68763  Biso   1.000  C
  C142     1.0000 0.19102  0.65474  0.31238  Biso   1.000  C
  C143     1.0000 0.30887  0.15466  0.68744  Biso   1.000  C
  C144     1.0000 0.69113  0.15465  0.31257  Biso   1.000  C
  H73      1.0000 0.22348  0.35007  0.32814  Biso   1.000  H
  H74      1.0000 0.77652  0.35003  0.67185  Biso   1.000  H
  H75      1.0000 0.72359  0.85017  0.32832  Biso   1.000  H
  H76      1.0000 0.27640  0.85016  0.67170  Biso   1.000  H
  H77      1.0000 0.77652  0.64997  0.67185  Biso   1.000  H
  H78      1.0000 0.22348  0.64993  0.32814  Biso   1.000  H
  H79      1.0000 0.27640  0.14984  0.67170  Biso   1.000  H
  H80      1.0000 0.72359  0.14983  0.32832  Biso   1.000  H
  C145     1.0000 0.30858  0.19331  0.24860  Biso   1.000  C
  C146     1.0000 0.69141  0.19328  0.75142  Biso   1.000  C
  C147     1.0000 0.80864  0.69332  0.24849  Biso   1.000  C
  C148     1.0000 0.19137  0.69332  0.75153  Biso   1.000  C
  C149     1.0000 0.69141  0.80672  0.75142  Biso   1.000  C
  C150     1.0000 0.30858  0.80669  0.24860  Biso   1.000  C
  C151     1.0000 0.19137  0.30668  0.75153  Biso   1.000  C
  C152     1.0000 0.80864  0.30668  0.24849  Biso   1.000  C
  C153     1.0000 0.29928  0.15731  0.30802  Biso   1.000  C
  C154     1.0000 0.70070  0.15728  0.69200  Biso   1.000  C
  C155     1.0000 0.79937  0.65748  0.30809  Biso   1.000  C
  C156     1.0000 0.20063  0.65748  0.69193  Biso   1.000  C
  C157     1.0000 0.70070  0.84272  0.69200  Biso   1.000  C
  C158     1.0000 0.29928  0.84269  0.30802  Biso   1.000  C
  C159     1.0000 0.20063  0.34252  0.69193  Biso   1.000  C
  C160     1.0000 0.79937  0.34252  0.30809  Biso   1.000  C
  H81      1.0000 0.26745  0.15249  0.32188  Biso   1.000  H
  H82      1.0000 0.73254  0.15246  0.67814  Biso   1.000  H
  H83      1.0000 0.76755  0.65271  0.32204  Biso   1.000  H
  H84      1.0000 0.23245  0.65271  0.67797  Biso   1.000  H
  H85      1.0000 0.73254  0.84754  0.67814  Biso   1.000  H
  H86      1.0000 0.26745  0.84751  0.32188  Biso   1.000  H
  H87      1.0000 0.23245  0.34729  0.67797  Biso   1.000  H
  H88      1.0000 0.76755  0.34729  0.32204  Biso   1.000  H
  O37      1.0000 0.05070  0.38821  0.35970  Biso   1.000  O
  O38      1.0000 0.94930  0.38819  0.64035  Biso   1.000  O
  O39      1.0000 0.55080  0.88818  0.35987  Biso   1.000  O
  O40      1.0000 0.44919  0.88818  0.64012  Biso   1.000  O
  O41      1.0000 0.94930  0.61181  0.64035  Biso   1.000  O
  O42      1.0000 0.05070  0.61179  0.35970  Biso   1.000  O
  O43      1.0000 0.44919  0.11182  0.64012  Biso   1.000  O
  O44      1.0000 0.55080  0.11182  0.35987  Biso   1.000  O
  O45      1.0000 0.95991  0.50000  0.40226  Biso   1.000  O
  O46      1.0000 0.04008  0.50000  0.59784  Biso   1.000  O
  O47      1.0000 0.45993  0.00000  0.40203  Biso   1.000  O
  O48      1.0000 0.54006  0.00000  0.59796  Biso   1.000  O
