data_image0
_cell_length_a       12.3756
_cell_length_b       12.3811
_cell_length_c       26.2323
_cell_angle_alpha    90
_cell_angle_beta     90
_cell_angle_gamma    90

_symmetry_space_group_name_H-M    "P 1"
_symmetry_int_tables_number       1

loop_
  _symmetry_equiv_pos_as_xyz
  'x, y, z'

loop_
  _atom_site_label
  _atom_site_occupancy
  _atom_site_fract_x
  _atom_site_fract_y
  _atom_site_fract_z
  _atom_site_thermal_displace_type
  _atom_site_B_iso_or_equiv
  _atom_site_type_symbol
  O1       1.0000 0.82488  0.86120  0.05750  Biso   1.000  O
  O2       1.0000 0.13900  0.82355  0.30669  Biso   1.000  O
  O3       1.0000 0.17512  0.13880  0.55750  Biso   1.000  O
  O4       1.0000 0.86100  0.17645  0.80669  Biso   1.000  O
  O5       1.0000 0.17512  0.86120  0.94250  Biso   1.000  O
  O6       1.0000 0.86100  0.82355  0.69331  Biso   1.000  O
  O7       1.0000 0.82488  0.13880  0.44250  Biso   1.000  O
  O8       1.0000 0.13900  0.17645  0.19331  Biso   1.000  O
  O9       1.0000 0.00000  0.86623  1.00000  Biso   1.000  O
  O10      1.0000 0.13406  1.00000  0.25000  Biso   1.000  O
  O11      1.0000 1.00000  0.13377  0.50000  Biso   1.000  O
  O12      1.0000 0.86594  0.00000  0.75000  Biso   1.000  O
  O13      1.0000 0.01596  0.85750  0.10077  Biso   1.000  O
  O14      1.0000 0.14378  0.01339  0.35091  Biso   1.000  O
  O15      1.0000 0.98404  0.14250  0.60077  Biso   1.000  O
  O16      1.0000 0.85622  0.98661  0.85091  Biso   1.000  O
  O17      1.0000 0.98404  0.85750  0.89923  Biso   1.000  O
  O18      1.0000 0.85622  0.01339  0.64909  Biso   1.000  O
  O19      1.0000 0.01596  0.14250  0.39923  Biso   1.000  O
  O20      1.0000 0.14378  0.98661  0.14909  Biso   1.000  O
  O21      1.0000 0.94818  0.68626  0.04884  Biso   1.000  O
  O22      1.0000 0.31440  0.94492  0.29789  Biso   1.000  O
  O23      1.0000 0.05182  0.31374  0.54884  Biso   1.000  O
  O24      1.0000 0.68560  0.05508  0.79789  Biso   1.000  O
  O25      1.0000 0.05182  0.68626  0.95116  Biso   1.000  O
  O26      1.0000 0.68560  0.94492  0.70211  Biso   1.000  O
  O27      1.0000 0.94818  0.31374  0.45116  Biso   1.000  O
  O28      1.0000 0.31440  0.05508  0.20211  Biso   1.000  O
  O29      1.0000 0.83685  0.50862  0.06705  Biso   1.000  O
  O30      1.0000 0.49333  0.83736  0.31768  Biso   1.000  O
  O31      1.0000 0.16315  0.49138  0.56705  Biso   1.000  O
  O32      1.0000 0.50667  0.16264  0.81768  Biso   1.000  O
  O33      1.0000 0.16315  0.50862  0.93295  Biso   1.000  O
  O34      1.0000 0.50667  0.83736  0.68232  Biso   1.000  O
  O35      1.0000 0.83685  0.49138  0.43295  Biso   1.000  O
  O36      1.0000 0.49333  0.16264  0.18232  Biso   1.000  O
  O37      1.0000 1.00000  0.50629  1.00000  Biso   1.000  O
  O38      1.0000 0.49451  0.00000  0.25000  Biso   1.000  O
  O39      1.0000 0.00000  0.49371  0.50000  Biso   1.000  O
  O40      1.0000 0.50549  0.00000  0.75000  Biso   1.000  O
  O41      1.0000 0.03711  0.52555  0.10038  Biso   1.000  O
  O42      1.0000 0.47213  0.03795  0.35031  Biso   1.000  O
  O43      1.0000 0.96289  0.47445  0.60038  Biso   1.000  O
  O44      1.0000 0.52787  0.96205  0.85031  Biso   1.000  O
  O45      1.0000 0.96289  0.52555  0.89962  Biso   1.000  O
  O46      1.0000 0.52787  0.03795  0.64969  Biso   1.000  O
  O47      1.0000 0.03711  0.47445  0.39962  Biso   1.000  O
  O48      1.0000 0.47213  0.96205  0.14969  Biso   1.000  O
  O49      1.0000 0.63412  0.87482  0.09933  Biso   1.000  O
  O50      1.0000 0.12830  0.63277  0.34891  Biso   1.000  O
  O51      1.0000 0.36588  0.12518  0.59933  Biso   1.000  O
  O52      1.0000 0.87170  0.36723  0.84891  Biso   1.000  O
  O53      1.0000 0.36588  0.87482  0.90067  Biso   1.000  O
  O54      1.0000 0.87170  0.63277  0.65109  Biso   1.000  O
  O55      1.0000 0.63412  0.12518  0.40067  Biso   1.000  O
  O56      1.0000 0.12830  0.36723  0.15109  Biso   1.000  O
  O57      1.0000 0.70793  0.68218  0.07100  Biso   1.000  O
  O58      1.0000 0.31968  0.70815  0.31997  Biso   1.000  O
  O59      1.0000 0.29207  0.31782  0.57100  Biso   1.000  O
  O60      1.0000 0.68032  0.29185  0.81997  Biso   1.000  O
  O61      1.0000 0.29207  0.68218  0.92900  Biso   1.000  O
  O62      1.0000 0.68032  0.70815  0.68003  Biso   1.000  O
  O63      1.0000 0.70793  0.31782  0.42900  Biso   1.000  O
  O64      1.0000 0.31968  0.29185  0.18003  Biso   1.000  O
  O65      1.0000 0.64867  0.82574  0.00060  Biso   1.000  O
  O66      1.0000 0.17545  0.64783  0.25017  Biso   1.000  O
  O67      1.0000 0.35133  0.17426  0.50060  Biso   1.000  O
  O68      1.0000 0.82455  0.35217  0.75017  Biso   1.000  O
  O69      1.0000 0.35133  0.82574  0.99940  Biso   1.000  O
  O70      1.0000 0.82455  0.64783  0.74983  Biso   1.000  O
  O71      1.0000 0.64867  0.17426  0.49940  Biso   1.000  O
  O72      1.0000 0.17545  0.35217  0.24983  Biso   1.000  O
  O73      1.0000 0.64439  0.49964  0.11142  Biso   1.000  O
  O74      1.0000 0.50081  0.64433  0.36163  Biso   1.000  O
  O75      1.0000 0.35561  0.50036  0.61142  Biso   1.000  O
  O76      1.0000 0.49919  0.35567  0.86163  Biso   1.000  O
  O77      1.0000 0.35561  0.49964  0.88858  Biso   1.000  O
  O78      1.0000 0.49919  0.64433  0.63837  Biso   1.000  O
  O79      1.0000 0.64439  0.50036  0.38858  Biso   1.000  O
  O80      1.0000 0.50081  0.35567  0.13837  Biso   1.000  O
  O81      1.0000 0.65717  0.51289  0.01108  Biso   1.000  O
  O82      1.0000 0.49081  0.65829  0.26100  Biso   1.000  O
  O83      1.0000 0.34283  0.48711  0.51108  Biso   1.000  O
  O84      1.0000 0.50919  0.34171  0.76100  Biso   1.000  O
  O85      1.0000 0.34283  0.51289  0.98892  Biso   1.000  O
  O86      1.0000 0.50919  0.65829  0.73900  Biso   1.000  O
  O87      1.0000 0.65717  0.48711  0.48892  Biso   1.000  O
  O88      1.0000 0.49081  0.34171  0.23900  Biso   1.000  O
  O89      1.0000 0.43865  0.79151  0.08911  Biso   1.000  O
  O90      1.0000 0.20874  0.43530  0.34031  Biso   1.000  O
  O91      1.0000 0.56135  0.20849  0.58911  Biso   1.000  O
  O92      1.0000 0.79126  0.56470  0.84031  Biso   1.000  O
  O93      1.0000 0.56135  0.79151  0.91089  Biso   1.000  O
  O94      1.0000 0.79126  0.43530  0.65969  Biso   1.000  O
  O95      1.0000 0.43865  0.20849  0.41089  Biso   1.000  O
  O96      1.0000 0.20874  0.56470  0.15969  Biso   1.000  O
  O97      1.0000 0.28384  0.65996  0.05739  Biso   1.000  O
  O98      1.0000 0.34184  0.28297  0.30684  Biso   1.000  O
  O99      1.0000 0.71616  0.34004  0.55739  Biso   1.000  O
  O100     1.0000 0.65816  0.71703  0.80684  Biso   1.000  O
  O101     1.0000 0.71616  0.65996  0.94261  Biso   1.000  O
  O102     1.0000 0.65816  0.28297  0.69316  Biso   1.000  O
  O103     1.0000 0.28384  0.34004  0.44261  Biso   1.000  O
  O104     1.0000 0.34184  0.71703  0.19316  Biso   1.000  O
  O105     1.0000 0.23066  0.85681  0.08219  Biso   1.000  O
  O106     1.0000 0.14486  0.22721  0.33115  Biso   1.000  O
  O107     1.0000 0.76934  0.14319  0.58219  Biso   1.000  O
  O108     1.0000 0.85514  0.77279  0.83115  Biso   1.000  O
  O109     1.0000 0.76934  0.85681  0.91781  Biso   1.000  O
  O110     1.0000 0.85514  0.22721  0.66885  Biso   1.000  O
  O111     1.0000 0.23066  0.14319  0.41781  Biso   1.000  O
  O112     1.0000 0.14486  0.77279  0.16885  Biso   1.000  O
  O113     1.0000 0.44518  0.51858  0.07575  Biso   1.000  O
  O114     1.0000 0.48162  0.44509  0.32574  Biso   1.000  O
  O115     1.0000 0.55482  0.48142  0.57575  Biso   1.000  O
  O116     1.0000 0.51838  0.55491  0.82574  Biso   1.000  O
  O117     1.0000 0.55482  0.51858  0.92425  Biso   1.000  O
  O118     1.0000 0.51838  0.44509  0.67426  Biso   1.000  O
  O119     1.0000 0.44518  0.48142  0.42425  Biso   1.000  O
  O120     1.0000 0.48162  0.55491  0.17426  Biso   1.000  O
  O121     1.0000 0.23581  0.45705  0.07374  Biso   1.000  O
  O122     1.0000 0.54494  0.23613  0.32445  Biso   1.000  O
  O123     1.0000 0.76419  0.54295  0.57374  Biso   1.000  O
  O124     1.0000 0.45506  0.76387  0.82445  Biso   1.000  O
  O125     1.0000 0.76419  0.45705  0.92626  Biso   1.000  O
  O126     1.0000 0.45506  0.23613  0.67555  Biso   1.000  O
  O127     1.0000 0.23581  0.54295  0.42626  Biso   1.000  O
  O128     1.0000 0.54494  0.76387  0.17555  Biso   1.000  O
  Si1      1.0000 0.94778  0.81693  0.05192  Biso   1.000  Si
  Si2      1.0000 0.18365  0.94633  0.30155  Biso   1.000  Si
  Si3      1.0000 0.05222  0.18307  0.55192  Biso   1.000  Si
  Si4      1.0000 0.81635  0.05367  0.80155  Biso   1.000  Si
  Si5      1.0000 0.05222  0.81693  0.94808  Biso   1.000  Si
  Si6      1.0000 0.81635  0.94633  0.69845  Biso   1.000  Si
  Si7      1.0000 0.94778  0.18307  0.44808  Biso   1.000  Si
  Si8      1.0000 0.18365  0.05367  0.19845  Biso   1.000  Si
  Si9      1.0000 0.95630  0.55631  0.05395  Biso   1.000  Si
  Si10     1.0000 0.44409  0.95596  0.30388  Biso   1.000  Si
  Si11     1.0000 0.04370  0.44369  0.55395  Biso   1.000  Si
  Si12     1.0000 0.55591  0.04404  0.80388  Biso   1.000  Si
  Si13     1.0000 0.04370  0.55631  0.94605  Biso   1.000  Si
  Si14     1.0000 0.55591  0.95596  0.69612  Biso   1.000  Si
  Si15     1.0000 0.95630  0.44369  0.44605  Biso   1.000  Si
  Si16     1.0000 0.44409  0.04404  0.19612  Biso   1.000  Si
  Si17     1.0000 0.70410  0.80989  0.05672  Biso   1.000  Si
  Si18     1.0000 0.19179  0.70339  0.30617  Biso   1.000  Si
  Si19     1.0000 0.29590  0.19011  0.55672  Biso   1.000  Si
  Si20     1.0000 0.80821  0.29661  0.80617  Biso   1.000  Si
  Si21     1.0000 0.29590  0.80989  0.94328  Biso   1.000  Si
  Si22     1.0000 0.80821  0.70339  0.69383  Biso   1.000  Si
  Si23     1.0000 0.70410  0.19011  0.44328  Biso   1.000  Si
  Si24     1.0000 0.19179  0.29661  0.19383  Biso   1.000  Si
  Si25     1.0000 0.71243  0.55168  0.06456  Biso   1.000  Si
  Si26     1.0000 0.45043  0.71285  0.31446  Biso   1.000  Si
  Si27     1.0000 0.28757  0.44832  0.56456  Biso   1.000  Si
  Si28     1.0000 0.54957  0.28715  0.81446  Biso   1.000  Si
  Si29     1.0000 0.28757  0.55168  0.93544  Biso   1.000  Si
  Si30     1.0000 0.54957  0.71285  0.68554  Biso   1.000  Si
  Si31     1.0000 0.71243  0.44832  0.43544  Biso   1.000  Si
  Si32     1.0000 0.45043  0.28715  0.18554  Biso   1.000  Si
  Si33     1.0000 0.32681  0.78488  0.05724  Biso   1.000  Si
  Si34     1.0000 0.21644  0.32506  0.30738  Biso   1.000  Si
  Si35     1.0000 0.67319  0.21512  0.55724  Biso   1.000  Si
  Si36     1.0000 0.78356  0.67494  0.80738  Biso   1.000  Si
  Si37     1.0000 0.67319  0.78488  0.94276  Biso   1.000  Si
  Si38     1.0000 0.78356  0.32506  0.69262  Biso   1.000  Si
  Si39     1.0000 0.32681  0.21512  0.44276  Biso   1.000  Si
  Si40     1.0000 0.21644  0.67494  0.19262  Biso   1.000  Si
  Si41     1.0000 0.32802  0.53615  0.04939  Biso   1.000  Si
  Si42     1.0000 0.46575  0.32761  0.29942  Biso   1.000  Si
  Si43     1.0000 0.67198  0.46385  0.54939  Biso   1.000  Si
  Si44     1.0000 0.53425  0.67239  0.79942  Biso   1.000  Si
  Si45     1.0000 0.67198  0.53615  0.95061  Biso   1.000  Si
  Si46     1.0000 0.53425  0.32761  0.70058  Biso   1.000  Si
  Si47     1.0000 0.32802  0.46385  0.45061  Biso   1.000  Si
  Si48     1.0000 0.46575  0.67239  0.20058  Biso   1.000  Si
  Si49     1.0000 0.52174  0.84909  0.12899  Biso   1.000  Si
  Si50     1.0000 0.15162  0.52074  0.37917  Biso   1.000  Si
  Si51     1.0000 0.47826  0.15091  0.62899  Biso   1.000  Si
  Si52     1.0000 0.84838  0.47926  0.87917  Biso   1.000  Si
  Si53     1.0000 0.47826  0.84909  0.87101  Biso   1.000  Si
  Si54     1.0000 0.84838  0.52074  0.62083  Biso   1.000  Si
  Si55     1.0000 0.52174  0.15091  0.37101  Biso   1.000  Si
  Si56     1.0000 0.15162  0.47926  0.12083  Biso   1.000  Si
  Si57     1.0000 0.51722  0.48294  0.12498  Biso   1.000  Si
  Si58     1.0000 0.51722  0.51706  0.37502  Biso   1.000  Si
  Si59     1.0000 0.48278  0.51706  0.62498  Biso   1.000  Si
  Si60     1.0000 0.48278  0.48294  0.87502  Biso   1.000  Si
  Si61     1.0000 0.13577  0.86632  0.12517  Biso   1.000  Si
  Si62     1.0000 0.13577  0.13368  0.37483  Biso   1.000  Si
  Si63     1.0000 0.86423  0.13368  0.62517  Biso   1.000  Si
  Si64     1.0000 0.86423  0.86632  0.87483  Biso   1.000  Si
