data_image0
_cell_length_a       28.9752
_cell_length_b       28.9752
_cell_length_c       12.6939
_cell_angle_alpha    90.0086
_cell_angle_beta     89.9915
_cell_angle_gamma    120

_symmetry_space_group_name_H-M    "P 1"
_symmetry_int_tables_number       1

loop_
  _symmetry_equiv_pos_as_xyz
  'x, y, z'

loop_
  _atom_site_label
  _atom_site_occupancy
  _atom_site_fract_x
  _atom_site_fract_y
  _atom_site_fract_z
  _atom_site_thermal_displace_type
  _atom_site_B_iso_or_equiv
  _atom_site_type_symbol
  C1       1.0000 0.08798  0.35202  0.20896  Biso   1.000  C
  C2       1.0000 0.64799  0.73597  0.20895  Biso   1.000  C
  C3       1.0000 0.26405  0.91203  0.20897  Biso   1.000  C
  C4       1.0000 0.35202  0.08799  0.79104  Biso   1.000  C
  C5       1.0000 0.73597  0.64799  0.79105  Biso   1.000  C
  C6       1.0000 0.91203  0.26405  0.79103  Biso   1.000  C
  C7       1.0000 0.75451  0.68536  0.54226  Biso   1.000  C
  C8       1.0000 0.31465  0.06916  0.54224  Biso   1.000  C
  C9       1.0000 0.93083  0.24549  0.54225  Biso   1.000  C
  C10      1.0000 0.01858  0.42094  0.12440  Biso   1.000  C
  C11      1.0000 0.40236  0.98143  0.12439  Biso   1.000  C
  C12      1.0000 0.57907  0.59765  0.12439  Biso   1.000  C
  C13      1.0000 0.42094  0.01858  0.87560  Biso   1.000  C
  C14      1.0000 0.98143  0.40236  0.87561  Biso   1.000  C
  C15      1.0000 0.59765  0.57907  0.87561  Biso   1.000  C
  C16      1.0000 0.68536  0.75451  0.45774  Biso   1.000  C
  C17      1.0000 0.06916  0.31465  0.45776  Biso   1.000  C
  C18      1.0000 0.24549  0.93083  0.45775  Biso   1.000  C
  C19      1.0000 0.13832  0.35098  0.19553  Biso   1.000  C
  C20      1.0000 0.64903  0.78734  0.19556  Biso   1.000  C
  C21      1.0000 0.21268  0.86169  0.19557  Biso   1.000  C
  C22      1.0000 0.35098  0.13832  0.80447  Biso   1.000  C
  C23      1.0000 0.78734  0.64903  0.80444  Biso   1.000  C
  C24      1.0000 0.86169  0.21268  0.80443  Biso   1.000  C
  C25      1.0000 0.80482  0.68429  0.52888  Biso   1.000  C
  C26      1.0000 0.31571  0.12054  0.52893  Biso   1.000  C
  C27      1.0000 0.87945  0.19518  0.52889  Biso   1.000  C
  C28      1.0000 0.01754  0.47126  0.13780  Biso   1.000  C
  C29      1.0000 0.45373  0.98248  0.13778  Biso   1.000  C
  C30      1.0000 0.52874  0.54629  0.13777  Biso   1.000  C
  C31      1.0000 0.47126  0.01754  0.86220  Biso   1.000  C
  C32      1.0000 0.98248  0.45373  0.86222  Biso   1.000  C
  C33      1.0000 0.54629  0.52874  0.86223  Biso   1.000  C
  C34      1.0000 0.68429  0.80482  0.47112  Biso   1.000  C
  C35      1.0000 0.12053  0.31570  0.47107  Biso   1.000  C
  C36      1.0000 0.19518  0.87946  0.47111  Biso   1.000  C
  C37      1.0000 0.18476  0.39080  0.24431  Biso   1.000  C
  C38      1.0000 0.60922  0.79397  0.24435  Biso   1.000  C
  C39      1.0000 0.20605  0.81525  0.24435  Biso   1.000  C
  C40      1.0000 0.39080  0.18476  0.75568  Biso   1.000  C
  C41      1.0000 0.79397  0.60922  0.75564  Biso   1.000  C
  C42      1.0000 0.81525  0.20605  0.75565  Biso   1.000  C
  C43      1.0000 0.85126  0.72412  0.57767  Biso   1.000  C
  C44      1.0000 0.27588  0.12715  0.57773  Biso   1.000  C
  C45      1.0000 0.87284  0.14875  0.57770  Biso   1.000  C
  C46      1.0000 0.05735  0.51767  0.08896  Biso   1.000  C
  C47      1.0000 0.46034  0.94267  0.08890  Biso   1.000  C
  C48      1.0000 0.48233  0.53968  0.08891  Biso   1.000  C
  C49      1.0000 0.51767  0.05735  0.91104  Biso   1.000  C
  C50      1.0000 0.94267  0.46034  0.91110  Biso   1.000  C
  C51      1.0000 0.53968  0.48233  0.91109  Biso   1.000  C
  C52      1.0000 0.72412  0.85126  0.42233  Biso   1.000  C
  C53      1.0000 0.12715  0.27588  0.42227  Biso   1.000  C
  C54      1.0000 0.14875  0.87284  0.42230  Biso   1.000  C
  H1       1.0000 0.18253  0.42183  0.28822  Biso   1.000  H
  H2       1.0000 0.57819  0.76072  0.28828  Biso   1.000  H
  H3       1.0000 0.23931  0.81746  0.28823  Biso   1.000  H
  H4       1.0000 0.42183  0.18253  0.71178  Biso   1.000  H
  H5       1.0000 0.76072  0.57819  0.71172  Biso   1.000  H
  H6       1.0000 0.81746  0.23931  0.71176  Biso   1.000  H
  H7       1.0000 0.84903  0.75518  0.62146  Biso   1.000  H
  H8       1.0000 0.24482  0.09388  0.62155  Biso   1.000  H
  H9       1.0000 0.90611  0.15097  0.62150  Biso   1.000  H
  H10      1.0000 0.08838  0.51540  0.04512  Biso   1.000  H
  H11      1.0000 0.42706  0.91166  0.04500  Biso   1.000  H
  H12      1.0000 0.48458  0.57296  0.04506  Biso   1.000  H
  H13      1.0000 0.51540  0.08838  0.95488  Biso   1.000  H
  H14      1.0000 0.91166  0.42706  0.95499  Biso   1.000  H
  H15      1.0000 0.57296  0.48459  0.95494  Biso   1.000  H
  H16      1.0000 0.75518  0.84903  0.37854  Biso   1.000  H
  H17      1.0000 0.09387  0.24482  0.37844  Biso   1.000  H
  H18      1.0000 0.15097  0.90612  0.37850  Biso   1.000  H
  C55      1.0000 0.23198  0.38957  0.23809  Biso   1.000  C
  C56      1.0000 0.61045  0.84243  0.23813  Biso   1.000  C
  C57      1.0000 0.15759  0.76803  0.23813  Biso   1.000  C
  C58      1.0000 0.38957  0.23198  0.76191  Biso   1.000  C
  C59      1.0000 0.84243  0.61045  0.76187  Biso   1.000  C
  C60      1.0000 0.76802  0.15759  0.76187  Biso   1.000  C
  C61      1.0000 0.89847  0.72285  0.57158  Biso   1.000  C
  C62      1.0000 0.27715  0.17563  0.57163  Biso   1.000  C
  C63      1.0000 0.82436  0.10153  0.57161  Biso   1.000  C
  C64      1.0000 0.05612  0.56490  0.09503  Biso   1.000  C
  C65      1.0000 0.50880  0.94390  0.09499  Biso   1.000  C
  C66      1.0000 0.43511  0.49121  0.09499  Biso   1.000  C
  C67      1.0000 0.56490  0.05612  0.90497  Biso   1.000  C
  C68      1.0000 0.94390  0.50880  0.90501  Biso   1.000  C
  C69      1.0000 0.49121  0.43511  0.90501  Biso   1.000  C
  C70      1.0000 0.72285  0.89847  0.42842  Biso   1.000  C
  C71      1.0000 0.17563  0.27715  0.42837  Biso   1.000  C
  C72      1.0000 0.10154  0.82436  0.42839  Biso   1.000  C
  H19      1.0000 0.26744  0.41998  0.27799  Biso   1.000  H
  H20      1.0000 0.58003  0.84747  0.27803  Biso   1.000  H
  H21      1.0000 0.15254  0.73257  0.27803  Biso   1.000  H
  H22      1.0000 0.41998  0.26744  0.72201  Biso   1.000  H
  H23      1.0000 0.84747  0.58003  0.72197  Biso   1.000  H
  H24      1.0000 0.73257  0.15254  0.72197  Biso   1.000  H
  H25      1.0000 0.93391  0.75327  0.61150  Biso   1.000  H
  H26      1.0000 0.24673  0.18066  0.61154  Biso   1.000  H
  H27      1.0000 0.81933  0.06610  0.61155  Biso   1.000  H
  H28      1.0000 0.08654  0.60032  0.05506  Biso   1.000  H
  H29      1.0000 0.51382  0.91349  0.05500  Biso   1.000  H
  H30      1.0000 0.39968  0.48619  0.05500  Biso   1.000  H
  H31      1.0000 0.60032  0.08654  0.94494  Biso   1.000  H
  H32      1.0000 0.91349  0.51382  0.94500  Biso   1.000  H
  H33      1.0000 0.48619  0.39969  0.94500  Biso   1.000  H
  H34      1.0000 0.75327  0.93391  0.38849  Biso   1.000  H
  H35      1.0000 0.18066  0.24673  0.38846  Biso   1.000  H
  H36      1.0000 0.06610  0.81933  0.38845  Biso   1.000  H
  C73      1.0000 0.23416  0.34833  0.18377  Biso   1.000  C
  C74      1.0000 0.65168  0.88583  0.18381  Biso   1.000  C
  C75      1.0000 0.11418  0.76585  0.18383  Biso   1.000  C
  C76      1.0000 0.34833  0.23416  0.81623  Biso   1.000  C
  C77      1.0000 0.88583  0.65168  0.81618  Biso   1.000  C
  C78      1.0000 0.76585  0.11418  0.81617  Biso   1.000  C
  C79      1.0000 0.90063  0.68158  0.51736  Biso   1.000  C
  C80      1.0000 0.31841  0.21905  0.51740  Biso   1.000  C
  C81      1.0000 0.78093  0.09936  0.51738  Biso   1.000  C
  C82      1.0000 0.01488  0.56710  0.14927  Biso   1.000  C
  C83      1.0000 0.55223  0.98513  0.14926  Biso   1.000  C
  C84      1.0000 0.43291  0.44778  0.14924  Biso   1.000  C
  C85      1.0000 0.56710  0.01488  0.85073  Biso   1.000  C
  C86      1.0000 0.98513  0.55223  0.85074  Biso   1.000  C
  C87      1.0000 0.44778  0.43291  0.85076  Biso   1.000  C
  C88      1.0000 0.68158  0.90063  0.48264  Biso   1.000  C
  C89      1.0000 0.21905  0.31841  0.48259  Biso   1.000  C
  C90      1.0000 0.09936  0.78094  0.48261  Biso   1.000  C
  C91      1.0000 0.18724  0.30827  0.13615  Biso   1.000  C
  C92      1.0000 0.69175  0.87898  0.13621  Biso   1.000  C
  C93      1.0000 0.12105  0.81277  0.13622  Biso   1.000  C
  C94      1.0000 0.30827  0.18725  0.86385  Biso   1.000  C
  C95      1.0000 0.87898  0.69175  0.86379  Biso   1.000  C
  C96      1.0000 0.81277  0.12105  0.86377  Biso   1.000  C
  C97      1.0000 0.85373  0.64154  0.46970  Biso   1.000  C
  C98      1.0000 0.35847  0.21220  0.46978  Biso   1.000  C
  C99      1.0000 0.78780  0.14627  0.46973  Biso   1.000  C
  C100     1.0000 0.97485  0.52022  0.19705  Biso   1.000  C
  C101     1.0000 0.54538  0.02517  0.19703  Biso   1.000  C
  C102     1.0000 0.47980  0.45465  0.19701  Biso   1.000  C
  C103     1.0000 0.52022  0.97485  0.80295  Biso   1.000  C
  C104     1.0000 0.02517  0.54538  0.80297  Biso   1.000  C
  C105     1.0000 0.45464  0.47980  0.80299  Biso   1.000  C
  C106     1.0000 0.64154  0.85373  0.53030  Biso   1.000  C
  C107     1.0000 0.21219  0.35848  0.53022  Biso   1.000  C
  C108     1.0000 0.14627  0.78780  0.53027  Biso   1.000  C
  H37      1.0000 0.18855  0.27690  0.09150  Biso   1.000  H
  H38      1.0000 0.72312  0.91166  0.09158  Biso   1.000  H
  H39      1.0000 0.08838  0.81148  0.09160  Biso   1.000  H
  H40      1.0000 0.27690  0.18855  0.90850  Biso   1.000  H
  H41      1.0000 0.91166  0.72312  0.90842  Biso   1.000  H
  H42      1.0000 0.81148  0.08838  0.90840  Biso   1.000  H
  H43      1.0000 0.85504  0.61016  0.42509  Biso   1.000  H
  H44      1.0000 0.38987  0.24488  0.42519  Biso   1.000  H
  H45      1.0000 0.75511  0.14496  0.42513  Biso   1.000  H
  H46      1.0000 0.94350  0.52157  0.24171  Biso   1.000  H
  H47      1.0000 0.57807  0.05651  0.24168  Biso   1.000  H
  H48      1.0000 0.47847  0.42196  0.24165  Biso   1.000  H
  H49      1.0000 0.52156  0.94350  0.75829  Biso   1.000  H
  H50      1.0000 0.05652  0.57807  0.75832  Biso   1.000  H
  H51      1.0000 0.42196  0.47847  0.75835  Biso   1.000  H
  H52      1.0000 0.61016  0.85504  0.57491  Biso   1.000  H
  H53      1.0000 0.24488  0.38987  0.57480  Biso   1.000  H
  H54      1.0000 0.14496  0.75512  0.57487  Biso   1.000  H
  C109     1.0000 0.13992  0.30965  0.14139  Biso   1.000  C
  C110     1.0000 0.69037  0.83029  0.14144  Biso   1.000  C
  C111     1.0000 0.16975  0.86009  0.14146  Biso   1.000  C
  C112     1.0000 0.30965  0.13993  0.85861  Biso   1.000  C
  C113     1.0000 0.83029  0.69037  0.85856  Biso   1.000  C
  C114     1.0000 0.86009  0.16975  0.85854  Biso   1.000  C
  C115     1.0000 0.80642  0.64293  0.47482  Biso   1.000  C
  C116     1.0000 0.35707  0.16349  0.47490  Biso   1.000  C
  C117     1.0000 0.83650  0.19358  0.47484  Biso   1.000  C
  C118     1.0000 0.97622  0.47290  0.19195  Biso   1.000  C
  C119     1.0000 0.49668  0.02380  0.19192  Biso   1.000  C
  C120     1.0000 0.52712  0.50334  0.19190  Biso   1.000  C
  C121     1.0000 0.47290  0.97622  0.80805  Biso   1.000  C
  C122     1.0000 0.02380  0.49668  0.80808  Biso   1.000  C
  C123     1.0000 0.50334  0.52712  0.80810  Biso   1.000  C
  C124     1.0000 0.64293  0.80642  0.52518  Biso   1.000  C
  C125     1.0000 0.16349  0.35707  0.52509  Biso   1.000  C
  C126     1.0000 0.19358  0.83651  0.52516  Biso   1.000  C
  H55      1.0000 0.10395  0.27921  0.10308  Biso   1.000  H
  H56      1.0000 0.72083  0.82475  0.10317  Biso   1.000  H
  H57      1.0000 0.17529  0.89607  0.10317  Biso   1.000  H
  H58      1.0000 0.27921  0.10395  0.89692  Biso   1.000  H
  H59      1.0000 0.82475  0.72083  0.89683  Biso   1.000  H
  H60      1.0000 0.89607  0.17529  0.89683  Biso   1.000  H
  H61      1.0000 0.77045  0.61250  0.43648  Biso   1.000  H
  H62      1.0000 0.38752  0.15795  0.43662  Biso   1.000  H
  H63      1.0000 0.84204  0.22955  0.43651  Biso   1.000  H
  H64      1.0000 0.94579  0.43695  0.23037  Biso   1.000  H
  H65      1.0000 0.49118  0.05425  0.23030  Biso   1.000  H
  H66      1.0000 0.56307  0.50886  0.23030  Biso   1.000  H
  H67      1.0000 0.43695  0.94579  0.76963  Biso   1.000  H
  H68      1.0000 0.05425  0.49118  0.76971  Biso   1.000  H
  H69      1.0000 0.50886  0.56307  0.76970  Biso   1.000  H
  H70      1.0000 0.61250  0.77044  0.56352  Biso   1.000  H
  H71      1.0000 0.15794  0.38752  0.56338  Biso   1.000  H
  H72      1.0000 0.22955  0.84204  0.56349  Biso   1.000  H
  C127     1.0000 0.28492  0.34801  0.17567  Biso   1.000  C
  C128     1.0000 0.65200  0.93691  0.17571  Biso   1.000  C
  C129     1.0000 0.06309  0.71510  0.17573  Biso   1.000  C
  C130     1.0000 0.34801  0.28492  0.82432  Biso   1.000  C
  C131     1.0000 0.93691  0.65200  0.82429  Biso   1.000  C
  C132     1.0000 0.71510  0.06309  0.82427  Biso   1.000  C
  C133     1.0000 0.95137  0.68122  0.50930  Biso   1.000  C
  C134     1.0000 0.31877  0.27014  0.50932  Biso   1.000  C
  C135     1.0000 0.72984  0.04862  0.50931  Biso   1.000  C
  C136     1.0000 0.01451  0.61783  0.15722  Biso   1.000  C
  C137     1.0000 0.60333  0.98550  0.15723  Biso   1.000  C
  C138     1.0000 0.38218  0.39667  0.15720  Biso   1.000  C
  C139     1.0000 0.61783  0.01451  0.84278  Biso   1.000  C
  C140     1.0000 0.98550  0.60333  0.84277  Biso   1.000  C
  C141     1.0000 0.39667  0.38218  0.84280  Biso   1.000  C
  C142     1.0000 0.68122  0.95137  0.49070  Biso   1.000  C
  C143     1.0000 0.27014  0.31877  0.49068  Biso   1.000  C
  C144     1.0000 0.04862  0.72984  0.49068  Biso   1.000  C
  C145     1.0000 0.33353  0.39601  0.16632  Biso   1.000  C
  C146     1.0000 0.60399  0.93752  0.16638  Biso   1.000  C
  C147     1.0000 0.06249  0.66648  0.16639  Biso   1.000  C
  C148     1.0000 0.39601  0.33353  0.83368  Biso   1.000  C
  C149     1.0000 0.93752  0.60399  0.83362  Biso   1.000  C
  C150     1.0000 0.66648  0.06249  0.83360  Biso   1.000  C
  C151     1.0000 1.00000  0.72922  0.49999  Biso   1.000  C
  C152     1.0000 0.27078  0.27078  0.50000  Biso   1.000  C
  C153     1.0000 0.72921  1.00000  0.50001  Biso   1.000  C
  H73      1.0000 0.33349  0.43354  0.16616  Biso   1.000  H
  H74      1.0000 0.56646  0.89996  0.16626  Biso   1.000  H
  H75      1.0000 0.10004  0.66650  0.16630  Biso   1.000  H
  H76      1.0000 0.43354  0.33349  0.83384  Biso   1.000  H
  H77      1.0000 0.89996  0.56646  0.83374  Biso   1.000  H
  H78      1.0000 0.66650  0.10004  0.83370  Biso   1.000  H
  H79      1.0000 0.99999  0.76676  0.49998  Biso   1.000  H
  H80      1.0000 0.23323  0.23323  0.50000  Biso   1.000  H
  H81      1.0000 0.76676  0.99999  0.50002  Biso   1.000  H
  C154     1.0000 0.28566  0.29997  0.17629  Biso   1.000  C
  C155     1.0000 0.70004  0.98569  0.17630  Biso   1.000  C
  C156     1.0000 0.01432  0.71436  0.17629  Biso   1.000  C
  C157     1.0000 0.29997  0.28566  0.82371  Biso   1.000  C
  C158     1.0000 0.98569  0.70004  0.82370  Biso   1.000  C
  C159     1.0000 0.71436  0.01432  0.82370  Biso   1.000  C
  C160     1.0000 0.95207  0.63316  0.50976  Biso   1.000  C
  C161     1.0000 0.36683  0.31890  0.50978  Biso   1.000  C
  C162     1.0000 0.68108  0.04792  0.50976  Biso   1.000  C
  C163     1.0000 0.96643  0.61850  0.15682  Biso   1.000  C
  C164     1.0000 0.65207  0.03358  0.15683  Biso   1.000  C
  C165     1.0000 0.38152  0.34793  0.15686  Biso   1.000  C
  C166     1.0000 0.61850  0.96643  0.84318  Biso   1.000  C
  C167     1.0000 0.03358  0.65207  0.84317  Biso   1.000  C
  C168     1.0000 0.34793  0.38152  0.84314  Biso   1.000  C
  C169     1.0000 0.63316  0.95206  0.49024  Biso   1.000  C
  C170     1.0000 0.31890  0.36683  0.49022  Biso   1.000  C
  C171     1.0000 0.04792  0.68108  0.49024  Biso   1.000  C
  H82      1.0000 0.24844  0.26243  0.18419  Biso   1.000  H
  H83      1.0000 0.73758  0.98600  0.18420  Biso   1.000  H
  H84      1.0000 0.01397  0.75157  0.18418  Biso   1.000  H
  H85      1.0000 0.26243  0.24844  0.81580  Biso   1.000  H
  H86      1.0000 0.98600  0.73758  0.81580  Biso   1.000  H
  H87      1.0000 0.75157  0.01397  0.81582  Biso   1.000  H
  H88      1.0000 0.91483  0.59563  0.51758  Biso   1.000  H
  H89      1.0000 0.40436  0.31920  0.51763  Biso   1.000  H
  H90      1.0000 0.68076  0.08515  0.51758  Biso   1.000  H
  H91      1.0000 0.92890  0.58125  0.14903  Biso   1.000  H
  H92      1.0000 0.65234  0.07110  0.14905  Biso   1.000  H
  H93      1.0000 0.41876  0.34764  0.14913  Biso   1.000  H
  H94      1.0000 0.58125  0.92890  0.85096  Biso   1.000  H
  H95      1.0000 0.07110  0.65234  0.85095  Biso   1.000  H
  H96      1.0000 0.34764  0.41876  0.85087  Biso   1.000  H
  H97      1.0000 0.59563  0.91483  0.48242  Biso   1.000  H
  H98      1.0000 0.31919  0.40436  0.48237  Biso   1.000  H
  H99      1.0000 0.08515  0.68076  0.48242  Biso   1.000  H
  C172     1.0000 0.33360  0.29941  0.16662  Biso   1.000  C
  C173     1.0000 0.70060  0.03419  0.16660  Biso   1.000  C
  C174     1.0000 0.96581  0.66641  0.16659  Biso   1.000  C
  C175     1.0000 0.29941  0.33360  0.83337  Biso   1.000  C
  C176     1.0000 0.03419  0.70060  0.83340  Biso   1.000  C
  C177     1.0000 0.66641  0.96581  0.83340  Biso   1.000  C
  C178     1.0000 0.99999  0.63257  0.50000  Biso   1.000  C
  C179     1.0000 0.36742  0.36742  0.50000  Biso   1.000  C
  C180     1.0000 0.63256  0.99999  0.50000  Biso   1.000  C
  C181     1.0000 0.33360  0.24840  0.16676  Biso   1.000  C
  C182     1.0000 0.75161  0.08521  0.16673  Biso   1.000  C
  C183     1.0000 0.91480  0.66640  0.16672  Biso   1.000  C
  C184     1.0000 0.24840  0.33360  0.83324  Biso   1.000  C
  C185     1.0000 0.08521  0.75161  0.83327  Biso   1.000  C
  C186     1.0000 0.66640  0.91480  0.83327  Biso   1.000  C
  C187     1.0000 0.99999  0.58156  0.50000  Biso   1.000  C
  C188     1.0000 0.41843  0.41843  0.50000  Biso   1.000  C
  C189     1.0000 0.58156  0.99999  0.50000  Biso   1.000  C
  C190     1.0000 0.36643  0.24003  0.09702  Biso   1.000  C
  C191     1.0000 0.75998  0.12640  0.09700  Biso   1.000  C
  C192     1.0000 0.87361  0.63356  0.09698  Biso   1.000  C
  C193     1.0000 0.24003  0.36643  0.90298  Biso   1.000  C
  C194     1.0000 0.12640  0.75998  0.90300  Biso   1.000  C
  C195     1.0000 0.63356  0.87361  0.90302  Biso   1.000  C
  C196     1.0000 0.03286  0.57326  0.43024  Biso   1.000  C
  C197     1.0000 0.42674  0.45960  0.43025  Biso   1.000  C
  C198     1.0000 0.54039  0.96713  0.43022  Biso   1.000  C
  C199     1.0000 0.90654  0.69926  0.23657  Biso   1.000  C
  C200     1.0000 0.79273  0.09346  0.23656  Biso   1.000  C
  C201     1.0000 0.30072  0.20729  0.23660  Biso   1.000  C
  C202     1.0000 0.69926  0.90654  0.76343  Biso   1.000  C
  C203     1.0000 0.09346  0.79273  0.76343  Biso   1.000  C
  C204     1.0000 0.20729  0.30072  0.76339  Biso   1.000  C
  C205     1.0000 0.57326  0.03286  0.56976  Biso   1.000  C
  C206     1.0000 0.45960  0.42674  0.56975  Biso   1.000  C
  C207     1.0000 0.96713  0.54040  0.56978  Biso   1.000  C
  H100     1.0000 0.39112  0.27112  0.04106  Biso   1.000  H
  H101     1.0000 0.72888  0.11998  0.04103  Biso   1.000  H
  H102     1.0000 0.88005  0.60890  0.04099  Biso   1.000  H
  H103     1.0000 0.27112  0.39112  0.95894  Biso   1.000  H
  H104     1.0000 0.11998  0.72889  0.95897  Biso   1.000  H
  H105     1.0000 0.60890  0.88005  0.95901  Biso   1.000  H
  H106     1.0000 0.05752  0.60438  0.37430  Biso   1.000  H
  H107     1.0000 0.39562  0.45313  0.37431  Biso   1.000  H
  H108     1.0000 0.54687  0.94248  0.37426  Biso   1.000  H
  H109     1.0000 0.93767  0.72388  0.29252  Biso   1.000  H
  H110     1.0000 0.78619  0.06232  0.29251  Biso   1.000  H
  H111     1.0000 0.27612  0.21384  0.29257  Biso   1.000  H
  H112     1.0000 0.72388  0.93767  0.70747  Biso   1.000  H
  H113     1.0000 0.06232  0.78620  0.70749  Biso   1.000  H
  H114     1.0000 0.21384  0.27613  0.70743  Biso   1.000  H
  H115     1.0000 0.60438  0.05752  0.62570  Biso   1.000  H
  H116     1.0000 0.45313  0.39562  0.62568  Biso   1.000  H
  H117     1.0000 0.94248  0.54687  0.62574  Biso   1.000  H
  C208     1.0000 0.36539  0.19147  0.09512  Biso   1.000  C
  C209     1.0000 0.80852  0.17393  0.09511  Biso   1.000  C
  C210     1.0000 0.82608  0.63457  0.09508  Biso   1.000  C
  C211     1.0000 0.19147  0.36539  0.90488  Biso   1.000  C
  C212     1.0000 0.17393  0.80852  0.90489  Biso   1.000  C
  C213     1.0000 0.63457  0.82608  0.90492  Biso   1.000  C
  C214     1.0000 0.03193  0.52476  0.42831  Biso   1.000  C
  C215     1.0000 0.47524  0.50717  0.42832  Biso   1.000  C
  C216     1.0000 0.49283  0.96807  0.42829  Biso   1.000  C
  C217     1.0000 0.85806  0.69839  0.23854  Biso   1.000  C
  C218     1.0000 0.84033  0.14192  0.23854  Biso   1.000  C
  C219     1.0000 0.30157  0.15968  0.23857  Biso   1.000  C
  C220     1.0000 0.69839  0.85806  0.76146  Biso   1.000  C
  C221     1.0000 0.14192  0.84033  0.76146  Biso   1.000  C
  C222     1.0000 0.15968  0.30157  0.76143  Biso   1.000  C
  C223     1.0000 0.52475  0.03193  0.57169  Biso   1.000  C
  C224     1.0000 0.50717  0.47524  0.57168  Biso   1.000  C
  C225     1.0000 0.96807  0.49283  0.57171  Biso   1.000  C
  H118     1.0000 0.38905  0.18421  0.03806  Biso   1.000  H
  H119     1.0000 0.81577  0.20484  0.03805  Biso   1.000  H
  H120     1.0000 0.79518  0.61091  0.03800  Biso   1.000  H
  H121     1.0000 0.18420  0.38905  0.96194  Biso   1.000  H
  H122     1.0000 0.20484  0.81578  0.96195  Biso   1.000  H
  H123     1.0000 0.61092  0.79518  0.96200  Biso   1.000  H
  H124     1.0000 0.05564  0.51756  0.37127  Biso   1.000  H
  H125     1.0000 0.48243  0.53807  0.37127  Biso   1.000  H
  H126     1.0000 0.46194  0.94438  0.37123  Biso   1.000  H
  H127     1.0000 0.85090  0.72211  0.29561  Biso   1.000  H
  H128     1.0000 0.87120  0.14907  0.29562  Biso   1.000  H
  H129     1.0000 0.27784  0.12881  0.29566  Biso   1.000  H
  H130     1.0000 0.72211  0.85090  0.70439  Biso   1.000  H
  H131     1.0000 0.14907  0.87121  0.70438  Biso   1.000  H
  H132     1.0000 0.12881  0.27784  0.70433  Biso   1.000  H
  H133     1.0000 0.51756  0.05564  0.62873  Biso   1.000  H
  H134     1.0000 0.53807  0.48243  0.62872  Biso   1.000  H
  H135     1.0000 0.94438  0.46194  0.62877  Biso   1.000  H
  C226     1.0000 0.33341  0.15121  0.16682  Biso   1.000  C
  C227     1.0000 0.84879  0.18223  0.16681  Biso   1.000  C
  C228     1.0000 0.81776  0.66653  0.16680  Biso   1.000  C
  C229     1.0000 0.15121  0.33341  0.83317  Biso   1.000  C
  C230     1.0000 0.18223  0.84879  0.83318  Biso   1.000  C
  C231     1.0000 0.66653  0.81776  0.83320  Biso   1.000  C
  C232     1.0000 0.00000  0.48446  0.50001  Biso   1.000  C
  C233     1.0000 0.51554  0.51555  0.50000  Biso   1.000  C
  C234     1.0000 0.48446  0.00000  0.49999  Biso   1.000  C
  C235     1.0000 0.33322  0.09966  0.16669  Biso   1.000  C
  C236     1.0000 0.90034  0.23359  0.16667  Biso   1.000  C
  C237     1.0000 0.76640  0.66672  0.16662  Biso   1.000  C
  C238     1.0000 0.09965  0.33322  0.83331  Biso   1.000  C
  C239     1.0000 0.23359  0.90034  0.83333  Biso   1.000  C
  C240     1.0000 0.66672  0.76640  0.83338  Biso   1.000  C
  C241     1.0000 0.00001  0.43301  0.50003  Biso   1.000  C
  C242     1.0000 0.56700  0.56700  0.50000  Biso   1.000  C
  C243     1.0000 0.43301  0.00002  0.49997  Biso   1.000  C
  La1      1.0000 0.99392  0.33334  0.33333  Biso   1.000  La
  La2      1.0000 0.66665  0.66057  0.33331  Biso   1.000  La
  La3      1.0000 0.33944  0.00610  0.33333  Biso   1.000  La
  La4      1.0000 0.33334  0.99392  0.66667  Biso   1.000  La
  La5      1.0000 0.66058  0.66665  0.66669  Biso   1.000  La
  La6      1.0000 0.00610  0.33944  0.66667  Biso   1.000  La
  La7      1.0000 0.99999  0.32694  1.00000  Biso   1.000  La
  La8      1.0000 0.32694  0.99999  0.00000  Biso   1.000  La
  La9      1.0000 0.67306  0.67306  1.00000  Biso   1.000  La
  O1       1.0000 0.08739  0.38558  0.27314  Biso   1.000  O
  O2       1.0000 0.61443  0.70180  0.27308  Biso   1.000  O
  O3       1.0000 0.29822  0.91265  0.27310  Biso   1.000  O
  O4       1.0000 0.38558  0.08739  0.72686  Biso   1.000  O
  O5       1.0000 0.70180  0.61443  0.72692  Biso   1.000  O
  O6       1.0000 0.91265  0.29822  0.72690  Biso   1.000  O
  O7       1.0000 0.75393  0.71890  0.60649  Biso   1.000  O
  O8       1.0000 0.28110  0.03500  0.60637  Biso   1.000  O
  O9       1.0000 0.96496  0.24608  0.60645  Biso   1.000  O
  O10      1.0000 0.05213  0.42031  0.06026  Biso   1.000  O
  O11      1.0000 0.36818  0.94786  0.06030  Biso   1.000  O
  O12      1.0000 0.57970  0.63184  0.06028  Biso   1.000  O
  O13      1.0000 0.42031  0.05213  0.93974  Biso   1.000  O
  O14      1.0000 0.94786  0.36818  0.93970  Biso   1.000  O
  O15      1.0000 0.63184  0.57970  0.93972  Biso   1.000  O
  O16      1.0000 0.71890  0.75392  0.39352  Biso   1.000  O
  O17      1.0000 0.03499  0.28109  0.39363  Biso   1.000  O
  O18      1.0000 0.24609  0.96497  0.39355  Biso   1.000  O
  O19      1.0000 0.04471  0.31715  0.16168  Biso   1.000  O
  O20      1.0000 0.68288  0.72758  0.16166  Biso   1.000  O
  O21      1.0000 0.27243  0.95529  0.16168  Biso   1.000  O
  O22      1.0000 0.31715  0.04471  0.83832  Biso   1.000  O
  O23      1.0000 0.72758  0.68288  0.83834  Biso   1.000  O
  O24      1.0000 0.95529  0.27243  0.83832  Biso   1.000  O
  O25      1.0000 0.71122  0.65052  0.49495  Biso   1.000  O
  O26      1.0000 0.34952  0.06076  0.49492  Biso   1.000  O
  O27      1.0000 0.93928  0.28877  0.49494  Biso   1.000  O
  O28      1.0000 0.98371  0.37766  0.17168  Biso   1.000  O
  O29      1.0000 0.39397  0.01631  0.17167  Biso   1.000  O
  O30      1.0000 0.62233  0.60604  0.17167  Biso   1.000  O
  O31      1.0000 0.37766  0.98371  0.82832  Biso   1.000  O
  O32      1.0000 0.01631  0.39397  0.82833  Biso   1.000  O
  O33      1.0000 0.60604  0.62234  0.82833  Biso   1.000  O
  O34      1.0000 0.65052  0.71122  0.50505  Biso   1.000  O
  O35      1.0000 0.06076  0.34952  0.50508  Biso   1.000  O
  O36      1.0000 0.28877  0.93928  0.50506  Biso   1.000  O
  O37      1.0000 0.33439  0.07976  0.07763  Biso   1.000  O
  O38      1.0000 0.92018  0.25468  0.07762  Biso   1.000  O
  O39      1.0000 0.74531  0.66546  0.07756  Biso   1.000  O
  O40      1.0000 0.07976  0.33440  0.92237  Biso   1.000  O
  O41      1.0000 0.25468  0.92018  0.92238  Biso   1.000  O
  O42      1.0000 0.66546  0.74531  0.92244  Biso   1.000  O
  O43      1.0000 0.00142  0.41315  0.41108  Biso   1.000  O
  O44      1.0000 0.58684  0.58825  0.41104  Biso   1.000  O
  O45      1.0000 0.41178  0.99862  0.41101  Biso   1.000  O
  O46      1.0000 0.74648  0.66817  0.25547  Biso   1.000  O
  O47      1.0000 0.92168  0.25350  0.25552  Biso   1.000  O
  O48      1.0000 0.33186  0.07836  0.25555  Biso   1.000  O
  O49      1.0000 0.66817  0.74648  0.74453  Biso   1.000  O
  O50      1.0000 0.25350  0.92168  0.74448  Biso   1.000  O
  O51      1.0000 0.07836  0.33186  0.74445  Biso   1.000  O
  O52      1.0000 0.41315  0.00142  0.58892  Biso   1.000  O
  O53      1.0000 0.58825  0.58684  0.58896  Biso   1.000  O
  O54      1.0000 0.99862  0.41178  0.58899  Biso   1.000  O
