data_image0
_cell_length_a       25.2579
_cell_length_b       25.2694
_cell_length_c       6.71635
_cell_angle_alpha    90.0539
_cell_angle_beta     89.9239
_cell_angle_gamma    120.32

_symmetry_space_group_name_H-M    "P 1"
_symmetry_int_tables_number       1

loop_
  _symmetry_equiv_pos_as_xyz
  'x, y, z'

loop_
  _atom_site_label
  _atom_site_occupancy
  _atom_site_fract_x
  _atom_site_fract_y
  _atom_site_fract_z
  _atom_site_thermal_displace_type
  _atom_site_B_iso_or_equiv
  _atom_site_type_symbol
  Fe1      1.0000 0.28915  0.98204  0.18176  Biso   1.000  Fe
  Fe2      1.0000 0.01874  0.30740  0.18144  Biso   1.000  Fe
  Fe3      1.0000 0.69400  0.71207  0.18164  Biso   1.000  Fe
  Fe4      1.0000 0.95581  0.31538  0.51509  Biso   1.000  Fe
  Fe5      1.0000 0.68541  0.64074  0.51477  Biso   1.000  Fe
  Fe6      1.0000 0.36067  0.04540  0.51497  Biso   1.000  Fe
  Fe7      1.0000 0.62248  0.64871  0.84843  Biso   1.000  Fe
  Fe8      1.0000 0.35207  0.97407  0.84810  Biso   1.000  Fe
  Fe9      1.0000 0.02733  0.37873  0.84831  Biso   1.000  Fe
  Fe10     1.0000 0.71085  0.01796  0.81824  Biso   1.000  Fe
  Fe11     1.0000 0.98126  0.69260  0.81856  Biso   1.000  Fe
  Fe12     1.0000 0.30600  0.28793  0.81836  Biso   1.000  Fe
  Fe13     1.0000 0.04419  0.68462  0.48491  Biso   1.000  Fe
  Fe14     1.0000 0.31459  0.35926  0.48523  Biso   1.000  Fe
  Fe15     1.0000 0.63933  0.95460  0.48503  Biso   1.000  Fe
  Fe16     1.0000 0.37752  0.35129  0.15157  Biso   1.000  Fe
  Fe17     1.0000 0.64793  0.02593  0.15190  Biso   1.000  Fe
  Fe18     1.0000 0.97267  0.62127  0.15169  Biso   1.000  Fe
  O1       1.0000 0.32361  0.02579  0.95138  Biso   1.000  O
  O2       1.0000 0.97520  0.29804  0.95105  Biso   1.000  O
  O3       1.0000 0.70321  0.67788  0.95089  Biso   1.000  O
  O4       1.0000 0.99028  0.35912  0.28471  Biso   1.000  O
  O5       1.0000 0.64187  0.63137  0.28439  Biso   1.000  O
  O6       1.0000 0.36987  0.01122  0.28423  Biso   1.000  O
  O7       1.0000 0.65694  0.69246  0.61804  Biso   1.000  O
  O8       1.0000 0.30854  0.96471  0.61772  Biso   1.000  O
  O9       1.0000 0.03654  0.34455  0.61756  Biso   1.000  O
  O10      1.0000 0.67639  0.97421  0.04862  Biso   1.000  O
  O11      1.0000 0.02480  0.70196  0.04895  Biso   1.000  O
  O12      1.0000 0.29679  0.32212  0.04911  Biso   1.000  O
  O13      1.0000 0.00972  0.64088  0.71529  Biso   1.000  O
  O14      1.0000 0.35813  0.36863  0.71561  Biso   1.000  O
  O15      1.0000 0.63013  0.98878  0.71577  Biso   1.000  O
  O16      1.0000 0.34306  0.30754  0.38196  Biso   1.000  O
  O17      1.0000 0.69146  0.03529  0.38228  Biso   1.000  O
  O18      1.0000 0.96346  0.65545  0.38244  Biso   1.000  O
  O19      1.0000 0.35694  0.09749  0.71550  Biso   1.000  O
  O20      1.0000 0.90343  0.25938  0.71540  Biso   1.000  O
  O21      1.0000 0.74116  0.64433  0.71506  Biso   1.000  O
  O22      1.0000 0.02361  0.43082  0.04884  Biso   1.000  O
  O23      1.0000 0.57009  0.59272  0.04873  Biso   1.000  O
  O24      1.0000 0.40783  0.97767  0.04839  Biso   1.000  O
  O25      1.0000 0.69028  0.76415  0.38217  Biso   1.000  O
  O26      1.0000 0.23676  0.92605  0.38207  Biso   1.000  O
  O27      1.0000 0.07449  0.31100  0.38173  Biso   1.000  O
  O28      1.0000 0.64306  0.90251  0.28450  Biso   1.000  O
  O29      1.0000 0.09657  0.74062  0.28460  Biso   1.000  O
  O30      1.0000 0.25884  0.35567  0.28494  Biso   1.000  O
  O31      1.0000 0.97639  0.56918  0.95116  Biso   1.000  O
  O32      1.0000 0.42991  0.40728  0.95127  Biso   1.000  O
  O33      1.0000 0.59217  0.02233  0.95161  Biso   1.000  O
  O34      1.0000 0.30972  0.23585  0.61783  Biso   1.000  O
  O35      1.0000 0.76324  0.07395  0.61793  Biso   1.000  O
  O36      1.0000 0.92551  0.68900  0.61827  Biso   1.000  O
  O37      1.0000 0.30058  0.05252  0.33258  Biso   1.000  O
  O38      1.0000 0.94807  0.24789  0.33212  Biso   1.000  O
  O39      1.0000 0.75319  0.70098  0.33208  Biso   1.000  O
  O40      1.0000 0.96725  0.38585  0.66592  Biso   1.000  O
  O41      1.0000 0.61473  0.58123  0.66545  Biso   1.000  O
  O42      1.0000 0.41986  0.03431  0.66541  Biso   1.000  O
  O43      1.0000 0.63392  0.71918  0.99925  Biso   1.000  O
  O44      1.0000 0.28140  0.91456  0.99879  Biso   1.000  O
  O45      1.0000 0.08653  0.36764  0.99875  Biso   1.000  O
  O46      1.0000 0.69942  0.94748  0.66742  Biso   1.000  O
  O47      1.0000 0.05193  0.75211  0.66788  Biso   1.000  O
  O48      1.0000 0.24681  0.29902  0.66792  Biso   1.000  O
  O49      1.0000 0.03275  0.61415  0.33408  Biso   1.000  O
  O50      1.0000 0.38527  0.41877  0.33455  Biso   1.000  O
  O51      1.0000 0.58014  0.96569  0.33459  Biso   1.000  O
  O52      1.0000 0.36608  0.28082  0.00075  Biso   1.000  O
  O53      1.0000 0.71860  0.08544  0.00121  Biso   1.000  O
  O54      1.0000 0.91347  0.63236  0.00125  Biso   1.000  O
  C1       1.0000 0.34019  0.08212  0.89582  Biso   1.000  C
  C2       1.0000 0.91868  0.25813  0.89576  Biso   1.000  C
  C3       1.0000 0.74263  0.66100  0.89545  Biso   1.000  C
  C4       1.0000 0.00686  0.41546  0.22915  Biso   1.000  C
  C5       1.0000 0.58534  0.59147  0.22909  Biso   1.000  C
  C6       1.0000 0.40930  0.99433  0.22879  Biso   1.000  C
  C7       1.0000 0.67353  0.74879  0.56248  Biso   1.000  C
  C8       1.0000 0.25201  0.92480  0.56242  Biso   1.000  C
  C9       1.0000 0.07596  0.32767  0.56212  Biso   1.000  C
  C10      1.0000 0.65981  0.91788  0.10418  Biso   1.000  C
  C11      1.0000 0.08132  0.74187  0.10424  Biso   1.000  C
  C12      1.0000 0.25737  0.33900  0.10455  Biso   1.000  C
  C13      1.0000 0.99314  0.58454  0.77085  Biso   1.000  C
  C14      1.0000 0.41466  0.40853  0.77091  Biso   1.000  C
  C15      1.0000 0.59070  0.00567  0.77121  Biso   1.000  C
  C16      1.0000 0.32647  0.25121  0.43752  Biso   1.000  C
  C17      1.0000 0.74799  0.07520  0.43758  Biso   1.000  C
  C18      1.0000 0.92404  0.67233  0.43788  Biso   1.000  C
  C19      1.0000 0.33589  0.12293  0.04012  Biso   1.000  C
  C20      1.0000 0.87749  0.21300  0.04014  Biso   1.000  C
  C21      1.0000 0.78743  0.66477  0.03994  Biso   1.000  C
  C22      1.0000 0.00255  0.45627  0.37346  Biso   1.000  C
  C23      1.0000 0.54415  0.54633  0.37348  Biso   1.000  C
  C24      1.0000 0.45410  0.99810  0.37328  Biso   1.000  C
  C25      1.0000 0.66922  0.78960  0.70679  Biso   1.000  C
  C26      1.0000 0.21082  0.87966  0.70681  Biso   1.000  C
  C27      1.0000 0.12077  0.33144  0.70661  Biso   1.000  C
  C28      1.0000 0.66411  0.87707  0.95988  Biso   1.000  C
  C29      1.0000 0.12251  0.78700  0.95986  Biso   1.000  C
  C30      1.0000 0.21257  0.33523  0.96006  Biso   1.000  C
  C31      1.0000 0.99745  0.54373  0.62654  Biso   1.000  C
  C32      1.0000 0.45585  0.45367  0.62652  Biso   1.000  C
  C33      1.0000 0.54590  0.00190  0.62672  Biso   1.000  C
  C34      1.0000 0.33078  0.21040  0.29321  Biso   1.000  C
  C35      1.0000 0.78918  0.12034  0.29319  Biso   1.000  C
  C36      1.0000 0.87923  0.66856  0.29339  Biso   1.000  C
  C37      1.0000 0.31729  0.10745  0.24444  Biso   1.000  C
  C38      1.0000 0.89287  0.20976  0.24424  Biso   1.000  C
  C39      1.0000 0.79081  0.68355  0.24410  Biso   1.000  C
  C40      1.0000 0.98395  0.44078  0.57777  Biso   1.000  C
  C41      1.0000 0.55953  0.54309  0.57757  Biso   1.000  C
  C42      1.0000 0.45747  0.01688  0.57744  Biso   1.000  C
  C43      1.0000 0.65062  0.77411  0.91111  Biso   1.000  C
  C44      1.0000 0.22620  0.87642  0.91090  Biso   1.000  C
  C45      1.0000 0.12414  0.35021  0.91077  Biso   1.000  C
  C46      1.0000 0.68271  0.89255  0.75556  Biso   1.000  C
  C47      1.0000 0.10713  0.79024  0.75576  Biso   1.000  C
  C48      1.0000 0.20919  0.31645  0.75590  Biso   1.000  C
  C49      1.0000 0.01605  0.55922  0.42223  Biso   1.000  C
  C50      1.0000 0.44047  0.45691  0.42243  Biso   1.000  C
  C51      1.0000 0.54253  0.98312  0.42256  Biso   1.000  C
  C52      1.0000 0.34938  0.22589  0.08889  Biso   1.000  C
  C53      1.0000 0.77380  0.12358  0.08910  Biso   1.000  C
  C54      1.0000 0.87586  0.64979  0.08923  Biso   1.000  C
  C55      1.0000 0.31496  0.15167  0.36269  Biso   1.000  C
  C56      1.0000 0.84821  0.16316  0.36247  Biso   1.000  C
  C57      1.0000 0.83699  0.68520  0.36251  Biso   1.000  C
  C58      1.0000 0.98163  0.48501  0.69603  Biso   1.000  C
  C59      1.0000 0.51488  0.49649  0.69580  Biso   1.000  C
  C60      1.0000 0.50366  0.01853  0.69585  Biso   1.000  C
  C61      1.0000 0.64829  0.81834  0.02936  Biso   1.000  C
  C62      1.0000 0.18154  0.82982  0.02914  Biso   1.000  C
  C63      1.0000 0.17033  0.35187  0.02918  Biso   1.000  C
  C64      1.0000 0.68504  0.84833  0.63731  Biso   1.000  C
  C65      1.0000 0.15179  0.83684  0.63753  Biso   1.000  C
  C66      1.0000 0.16301  0.31480  0.63749  Biso   1.000  C
  C67      1.0000 0.01837  0.51499  0.30397  Biso   1.000  C
  C68      1.0000 0.48512  0.50351  0.30420  Biso   1.000  C
  C69      1.0000 0.49634  0.98147  0.30415  Biso   1.000  C
  C70      1.0000 0.35171  0.18166  0.97064  Biso   1.000  C
  C71      1.0000 0.81846  0.17018  0.97086  Biso   1.000  C
  C72      1.0000 0.82967  0.64813  0.97082  Biso   1.000  C
  H1       1.0000 0.30079  0.14017  0.51685  Biso   1.000  H
  H2       1.0000 0.85958  0.16035  0.51649  Biso   1.000  H
  H3       1.0000 0.83989  0.69949  0.51658  Biso   1.000  H
  H4       1.0000 0.96745  0.47350  0.85018  Biso   1.000  H
  H5       1.0000 0.52625  0.49369  0.84983  Biso   1.000  H
  H6       1.0000 0.50656  0.03282  0.84991  Biso   1.000  H
  H7       1.0000 0.63412  0.80684  0.18352  Biso   1.000  H
  H8       1.0000 0.19292  0.82702  0.18316  Biso   1.000  H
  H9       1.0000 0.17322  0.36615  0.18325  Biso   1.000  H
  H10      1.0000 0.69921  0.85983  0.48315  Biso   1.000  H
  H11      1.0000 0.14042  0.83965  0.48351  Biso   1.000  H
  H12      1.0000 0.16011  0.30051  0.48342  Biso   1.000  H
  H13      1.0000 0.03255  0.52650  0.14982  Biso   1.000  H
  H14      1.0000 0.47375  0.50631  0.15017  Biso   1.000  H
  H15      1.0000 0.49344  0.96718  0.15009  Biso   1.000  H
  H16      1.0000 0.36588  0.19316  0.81648  Biso   1.000  H
  H17      1.0000 0.80708  0.17298  0.81684  Biso   1.000  H
  H18      1.0000 0.82678  0.63385  0.81675  Biso   1.000  H
