data_image0
_cell_length_a       17.3007
_cell_length_b       11.5895
_cell_length_c       20.0448
_cell_angle_alpha    89.9234
_cell_angle_beta     103.612
_cell_angle_gamma    89.4948

_symmetry_space_group_name_H-M    "P 1"
_symmetry_int_tables_number       1

loop_
  _symmetry_equiv_pos_as_xyz
  'x, y, z'

loop_
  _atom_site_label
  _atom_site_occupancy
  _atom_site_fract_x
  _atom_site_fract_y
  _atom_site_fract_z
  _atom_site_thermal_displace_type
  _atom_site_B_iso_or_equiv
  _atom_site_type_symbol
  Tm1      1.0000 0.40812  0.36236  0.40720  Biso   1.000  Tm
  Tm2      1.0000 0.90785  0.86318  0.40422  Biso   1.000  Tm
  Tm3      1.0000 0.59476  0.36231  0.09324  Biso   1.000  Tm
  Tm4      1.0000 0.09213  0.86588  0.09513  Biso   1.000  Tm
  Tm5      1.0000 0.59131  0.64195  0.59298  Biso   1.000  Tm
  Tm6      1.0000 0.09191  0.13725  0.59555  Biso   1.000  Tm
  Tm7      1.0000 0.40827  0.63730  0.90690  Biso   1.000  Tm
  Tm8      1.0000 0.90807  0.13266  0.90438  Biso   1.000  Tm
  O1       1.0000 0.32005  0.24975  0.45006  Biso   1.000  O
  O2       1.0000 0.81162  0.75988  0.44178  Biso   1.000  O
  O3       1.0000 0.68358  0.24909  0.04998  Biso   1.000  O
  O4       1.0000 0.16973  0.73984  0.04699  Biso   1.000  O
  O5       1.0000 0.68230  0.75056  0.55121  Biso   1.000  O
  O6       1.0000 0.16973  0.26187  0.54739  Biso   1.000  O
  O7       1.0000 0.32002  0.75084  0.95044  Biso   1.000  O
  O8       1.0000 0.83240  0.26120  0.95241  Biso   1.000  O
  O9       1.0000 0.37608  0.17537  0.37066  Biso   1.000  O
  O10      1.0000 0.87386  0.67520  0.36969  Biso   1.000  O
  O11      1.0000 0.62952  0.17559  0.13054  Biso   1.000  O
  O12      1.0000 0.13073  0.68592  0.13990  Biso   1.000  O
  O13      1.0000 0.62287  0.83001  0.62683  Biso   1.000  O
  O14      1.0000 0.13076  0.31569  0.64032  Biso   1.000  O
  O15      1.0000 0.37675  0.82533  0.87189  Biso   1.000  O
  O16      1.0000 0.86937  0.31159  0.85794  Biso   1.000  O
  O17      1.0000 0.19045  0.93532  0.18562  Biso   1.000  O
  O18      1.0000 0.68064  0.45887  0.17876  Biso   1.000  O
  O19      1.0000 0.82316  0.95992  0.31709  Biso   1.000  O
  O20      1.0000 0.32027  0.45958  0.32160  Biso   1.000  O
  O21      1.0000 0.80921  0.06478  0.81422  Biso   1.000  O
  O22      1.0000 0.32002  0.54045  0.82217  Biso   1.000  O
  O23      1.0000 0.19017  0.06489  0.68581  Biso   1.000  O
  O24      1.0000 0.68008  0.54459  0.67788  Biso   1.000  O
  O25      1.0000 0.06631  0.92616  0.19738  Biso   1.000  O
  O26      1.0000 0.57680  0.37401  0.20430  Biso   1.000  O
  O27      1.0000 0.92479  0.86564  0.29195  Biso   1.000  O
  O28      1.0000 0.42521  0.37524  0.29604  Biso   1.000  O
  O29      1.0000 0.93302  0.07500  0.80179  Biso   1.000  O
  O30      1.0000 0.42334  0.62438  0.79509  Biso   1.000  O
  O31      1.0000 0.06809  0.08881  0.70064  Biso   1.000  O
  O32      1.0000 0.57651  0.63007  0.70513  Biso   1.000  O
  O33      1.0000 0.03793  0.88632  0.44162  Biso   1.000  O
  O34      1.0000 0.53836  0.38336  0.44184  Biso   1.000  O
  O35      1.0000 0.96108  0.87005  0.05247  Biso   1.000  O
  O36      1.0000 0.46376  0.38457  0.05913  Biso   1.000  O
  O37      1.0000 0.96003  0.12390  0.55649  Biso   1.000  O
  O38      1.0000 0.46050  0.61665  0.55948  Biso   1.000  O
  O39      1.0000 0.03959  0.12494  0.94456  Biso   1.000  O
  O40      1.0000 0.53899  0.61552  0.94140  Biso   1.000  O
  O41      1.0000 0.11041  0.00356  0.52060  Biso   1.000  O
  O42      1.0000 0.60707  0.50974  0.51691  Biso   1.000  O
  O43      1.0000 0.88973  0.99450  0.97593  Biso   1.000  O
  O44      1.0000 0.38987  0.50483  0.98170  Biso   1.000  O
  O45      1.0000 0.89342  0.99563  0.48119  Biso   1.000  O
  O46      1.0000 0.38979  0.49499  0.48228  Biso   1.000  O
  O47      1.0000 0.11039  0.00104  0.02171  Biso   1.000  O
  O48      1.0000 0.61331  0.49531  0.01867  Biso   1.000  O
  C1       1.0000 0.32089  0.17357  0.40367  Biso   1.000  C
  C2       1.0000 0.81546  0.67884  0.39894  Biso   1.000  C
  C3       1.0000 0.68369  0.17249  0.09641  Biso   1.000  C
  C4       1.0000 0.17867  0.67424  0.10007  Biso   1.000  C
  C5       1.0000 0.67950  0.82991  0.59532  Biso   1.000  C
  C6       1.0000 0.17875  0.32685  0.60055  Biso   1.000  C
  C7       1.0000 0.32155  0.82847  0.90495  Biso   1.000  C
  C8       1.0000 0.82254  0.32525  0.89853  Biso   1.000  C
  C9       1.0000 0.25457  0.09031  0.38465  Biso   1.000  C
  C10      1.0000 0.74983  0.59434  0.38039  Biso   1.000  C
  C11      1.0000 0.74903  0.08559  0.11400  Biso   1.000  C
  C12      1.0000 0.24655  0.59150  0.11838  Biso   1.000  C
  C13      1.0000 0.74501  0.91450  0.61392  Biso   1.000  C
  C14      1.0000 0.24632  0.40836  0.61892  Biso   1.000  C
  C15      1.0000 0.25621  0.91516  0.88666  Biso   1.000  C
  C16      1.0000 0.75493  0.40858  0.88051  Biso   1.000  C
  C17      1.0000 0.20763  0.06488  0.43085  Biso   1.000  C
  C18      1.0000 0.70368  0.56838  0.42711  Biso   1.000  C
  C19      1.0000 0.79343  0.05578  0.06638  Biso   1.000  C
  C20      1.0000 0.29195  0.56356  0.07112  Biso   1.000  C
  C21      1.0000 0.79211  0.94095  0.56796  Biso   1.000  C
  C22      1.0000 0.29146  0.43614  0.57155  Biso   1.000  C
  C23      1.0000 0.20966  0.94245  0.93306  Biso   1.000  C
  C24      1.0000 0.71007  0.43630  0.92819  Biso   1.000  C
  H1       1.0000 0.22215  0.10267  0.48188  Biso   1.000  H
  H2       1.0000 0.71706  0.60911  0.47735  Biso   1.000  H
  H3       1.0000 0.77897  0.09554  0.01571  Biso   1.000  H
  H4       1.0000 0.27627  0.60124  0.01989  Biso   1.000  H
  H5       1.0000 0.77804  0.90340  0.51684  Biso   1.000  H
  H6       1.0000 0.27613  0.39877  0.52039  Biso   1.000  H
  H7       1.0000 0.22380  0.90334  0.98390  Biso   1.000  H
  H8       1.0000 0.72585  0.39779  0.97921  Biso   1.000  H
  C25      1.0000 0.14191  0.99209  0.41078  Biso   1.000  C
  C26      1.0000 0.64044  0.49075  0.40868  Biso   1.000  C
  C27      1.0000 0.85667  0.97634  0.08464  Biso   1.000  C
  C28      1.0000 0.35781  0.48870  0.09057  Biso   1.000  C
  C29      1.0000 0.85753  0.01441  0.58845  Biso   1.000  C
  C30      1.0000 0.35653  0.51065  0.59078  Biso   1.000  C
  C31      1.0000 0.14455  0.01833  0.91331  Biso   1.000  C
  C32      1.0000 0.64457  0.51188  0.90945  Biso   1.000  C
  C33      1.0000 0.11989  0.95286  0.34273  Biso   1.000  C
  C34      1.0000 0.62084  0.44498  0.34216  Biso   1.000  C
  C35      1.0000 0.87747  0.93187  0.15171  Biso   1.000  C
  C36      1.0000 0.37940  0.44553  0.15785  Biso   1.000  C
  C37      1.0000 0.87894  0.05306  0.65656  Biso   1.000  C
  C38      1.0000 0.37763  0.55357  0.65789  Biso   1.000  C
  C39      1.0000 0.12301  0.05910  0.84541  Biso   1.000  C
  C40      1.0000 0.62286  0.55629  0.84247  Biso   1.000  C
  H9       1.0000 0.06639  0.90197  0.32523  Biso   1.000  H
  H10      1.0000 0.57009  0.38824  0.32623  Biso   1.000  H
  H11      1.0000 0.92806  0.87370  0.16753  Biso   1.000  H
  H12      1.0000 0.43162  0.39022  0.17419  Biso   1.000  H
  H13      1.0000 0.93251  0.10324  0.67462  Biso   1.000  H
  H14      1.0000 0.42913  0.60889  0.67400  Biso   1.000  H
  H15      1.0000 0.06974  0.11163  0.82800  Biso   1.000  H
  H16      1.0000 0.57097  0.61238  0.82672  Biso   1.000  H
  C41      1.0000 0.16644  0.98019  0.29651  Biso   1.000  C
  C42      1.0000 0.66559  0.47460  0.29495  Biso   1.000  C
  C43      1.0000 0.83485  0.96565  0.19988  Biso   1.000  C
  C44      1.0000 0.33471  0.47569  0.20519  Biso   1.000  C
  C45      1.0000 0.83232  0.02444  0.70249  Biso   1.000  C
  C46      1.0000 0.33343  0.52349  0.70542  Biso   1.000  C
  C47      1.0000 0.16883  0.02941  0.79883  Biso   1.000  C
  C48      1.0000 0.66698  0.52654  0.79464  Biso   1.000  C
  C49      1.0000 0.23574  0.04483  0.31815  Biso   1.000  C
  C50      1.0000 0.73171  0.54635  0.31453  Biso   1.000  C
  C51      1.0000 0.76910  0.03986  0.18059  Biso   1.000  C
  C52      1.0000 0.26750  0.54696  0.18533  Biso   1.000  C
  C53      1.0000 0.76331  0.95947  0.68055  Biso   1.000  C
  C54      1.0000 0.26694  0.45256  0.68581  Biso   1.000  C
  C55      1.0000 0.23746  0.96140  0.82014  Biso   1.000  C
  C56      1.0000 0.73380  0.45423  0.81378  Biso   1.000  C
  H17      1.0000 0.27288  0.06399  0.28270  Biso   1.000  H
  H18      1.0000 0.76728  0.56732  0.27810  Biso   1.000  H
  H19      1.0000 0.73532  0.06475  0.21781  Biso   1.000  H
  H20      1.0000 0.23266  0.56988  0.22211  Biso   1.000  H
  H21      1.0000 0.72629  0.93919  0.71592  Biso   1.000  H
  H22      1.0000 0.23233  0.42981  0.72268  Biso   1.000  H
  H23      1.0000 0.27390  0.93993  0.78436  Biso   1.000  H
  H24      1.0000 0.76819  0.43154  0.77662  Biso   1.000  H
  C57      1.0000 0.14039  0.94520  0.22344  Biso   1.000  C
  C58      1.0000 0.64029  0.43341  0.22319  Biso   1.000  C
  C59      1.0000 0.86196  0.92795  0.27252  Biso   1.000  C
  C60      1.0000 0.36091  0.43470  0.27720  Biso   1.000  C
  C61      1.0000 0.85879  0.05679  0.77584  Biso   1.000  C
  C62      1.0000 0.35971  0.56487  0.77719  Biso   1.000  C
  C63      1.0000 0.14170  0.06329  0.72549  Biso   1.000  C
  C64      1.0000 0.64035  0.56929  0.72295  Biso   1.000  C
  C65      1.0000 0.09376  0.95928  0.46070  Biso   1.000  C
  C66      1.0000 0.59239  0.45968  0.45884  Biso   1.000  C
  C67      1.0000 0.90524  0.94489  0.03456  Biso   1.000  C
  C68      1.0000 0.40680  0.45759  0.04082  Biso   1.000  C
  C69      1.0000 0.90675  0.04653  0.53908  Biso   1.000  C
  C70      1.0000 0.40529  0.54251  0.54113  Biso   1.000  C
  C71      1.0000 0.09523  0.04995  0.96286  Biso   1.000  C
  C72      1.0000 0.59605  0.54260  0.95958  Biso   1.000  C
