data_image0
_cell_length_a       16.4914
_cell_length_b       16.4914
_cell_length_c       16.4914
_cell_angle_alpha    90
_cell_angle_beta     90
_cell_angle_gamma    90

_symmetry_space_group_name_H-M    "P 1"
_symmetry_int_tables_number       1

loop_
  _symmetry_equiv_pos_as_xyz
  'x, y, z'

loop_
  _atom_site_label
  _atom_site_occupancy
  _atom_site_fract_x
  _atom_site_fract_y
  _atom_site_fract_z
  _atom_site_thermal_displace_type
  _atom_site_B_iso_or_equiv
  _atom_site_type_symbol
  Pd1      1.0000 0.25000  0.00000  0.75000  Biso   1.000  Pd
  Pd2      1.0000 0.25000  0.50000  0.75000  Biso   1.000  Pd
  Pd3      1.0000 1.00000  0.75000  0.25000  Biso   1.000  Pd
  Pd4      1.0000 0.50000  0.75000  0.25000  Biso   1.000  Pd
  Pd5      1.0000 0.75000  0.25000  1.00000  Biso   1.000  Pd
  Pd6      1.0000 0.75000  0.25000  0.50000  Biso   1.000  Pd
  Pd7      1.0000 0.75000  0.00000  0.25000  Biso   1.000  Pd
  Pd8      1.0000 0.75000  0.50000  0.25000  Biso   1.000  Pd
  Pd9      1.0000 1.00000  0.25000  0.75000  Biso   1.000  Pd
  Pd10     1.0000 0.50000  0.25000  0.75000  Biso   1.000  Pd
  Pd11     1.0000 0.25000  0.75000  0.00000  Biso   1.000  Pd
  Pd12     1.0000 0.25000  0.75000  0.50000  Biso   1.000  Pd
  N1       1.0000 0.31012  0.08783  0.81243  Biso   1.000  N
  N2       1.0000 0.18988  0.08783  0.68757  Biso   1.000  N
  N3       1.0000 0.18988  0.41217  0.81243  Biso   1.000  N
  N4       1.0000 0.31012  0.41217  0.68757  Biso   1.000  N
  N5       1.0000 0.91217  0.81012  0.31243  Biso   1.000  N
  N6       1.0000 0.58783  0.68988  0.31243  Biso   1.000  N
  N7       1.0000 0.31243  0.58783  0.68988  Biso   1.000  N
  N8       1.0000 0.18757  0.58783  0.81012  Biso   1.000  N
  N9       1.0000 0.91217  0.68988  0.18757  Biso   1.000  N
  N10      1.0000 0.58783  0.81012  0.18757  Biso   1.000  N
  N11      1.0000 0.81243  0.31012  0.08783  Biso   1.000  N
  N12      1.0000 0.08783  0.81243  0.31012  Biso   1.000  N
  N13      1.0000 0.18757  0.91217  0.68988  Biso   1.000  N
  N14      1.0000 0.68988  0.18757  0.91217  Biso   1.000  N
  N15      1.0000 0.81243  0.18988  0.41217  Biso   1.000  N
  N16      1.0000 0.08783  0.68757  0.18988  Biso   1.000  N
  N17      1.0000 0.68757  0.31012  0.41217  Biso   1.000  N
  N18      1.0000 0.41217  0.81243  0.18988  Biso   1.000  N
  N19      1.0000 0.68757  0.18988  0.08783  Biso   1.000  N
  N20      1.0000 0.41217  0.68757  0.31012  Biso   1.000  N
  N21      1.0000 0.68988  0.31243  0.58783  Biso   1.000  N
  N22      1.0000 0.81012  0.18757  0.58783  Biso   1.000  N
  N23      1.0000 0.31243  0.91217  0.81012  Biso   1.000  N
  N24      1.0000 0.81012  0.31243  0.91217  Biso   1.000  N
  N25      1.0000 0.68988  0.91216  0.18757  Biso   1.000  N
  N26      1.0000 0.81012  0.91216  0.31243  Biso   1.000  N
  N27      1.0000 0.81012  0.58784  0.18757  Biso   1.000  N
  N28      1.0000 0.68988  0.58784  0.31243  Biso   1.000  N
  N29      1.0000 0.08784  0.18988  0.68757  Biso   1.000  N
  N30      1.0000 0.41216  0.31012  0.68757  Biso   1.000  N
  N31      1.0000 0.68757  0.41216  0.31012  Biso   1.000  N
  N32      1.0000 0.81243  0.41216  0.18988  Biso   1.000  N
  N33      1.0000 0.08784  0.31012  0.81243  Biso   1.000  N
  N34      1.0000 0.41216  0.18988  0.81243  Biso   1.000  N
  N35      1.0000 0.18757  0.68988  0.91216  Biso   1.000  N
  N36      1.0000 0.91216  0.18757  0.68988  Biso   1.000  N
  N37      1.0000 0.81243  0.08784  0.31012  Biso   1.000  N
  N38      1.0000 0.31012  0.81243  0.08784  Biso   1.000  N
  N39      1.0000 0.18757  0.81012  0.58784  Biso   1.000  N
  N40      1.0000 0.91216  0.31243  0.81012  Biso   1.000  N
  N41      1.0000 0.31243  0.68988  0.58784  Biso   1.000  N
  N42      1.0000 0.58784  0.18757  0.81012  Biso   1.000  N
  N43      1.0000 0.31243  0.81012  0.91216  Biso   1.000  N
  N44      1.0000 0.58784  0.31243  0.68988  Biso   1.000  N
  N45      1.0000 0.31012  0.68757  0.41216  Biso   1.000  N
  N46      1.0000 0.18988  0.81243  0.41216  Biso   1.000  N
  N47      1.0000 0.68757  0.08784  0.18988  Biso   1.000  N
  N48      1.0000 0.18988  0.68757  0.08784  Biso   1.000  N
  C1       1.0000 0.28740  0.11075  0.88697  Biso   1.000  C
  C2       1.0000 0.21260  0.11075  0.61303  Biso   1.000  C
  C3       1.0000 0.21260  0.38925  0.88697  Biso   1.000  C
  C4       1.0000 0.28740  0.38925  0.61303  Biso   1.000  C
  C5       1.0000 0.88925  0.78740  0.38697  Biso   1.000  C
  C6       1.0000 0.61075  0.71260  0.38697  Biso   1.000  C
  C7       1.0000 0.38697  0.61075  0.71260  Biso   1.000  C
  C8       1.0000 0.11303  0.61075  0.78740  Biso   1.000  C
  C9       1.0000 0.88925  0.71260  0.11303  Biso   1.000  C
  C10      1.0000 0.61075  0.78740  0.11303  Biso   1.000  C
  C11      1.0000 0.88697  0.28740  0.11075  Biso   1.000  C
  C12      1.0000 0.11075  0.88697  0.28740  Biso   1.000  C
  C13      1.0000 0.11303  0.88925  0.71260  Biso   1.000  C
  C14      1.0000 0.71260  0.11303  0.88925  Biso   1.000  C
  C15      1.0000 0.88697  0.21260  0.38925  Biso   1.000  C
  C16      1.0000 0.11075  0.61303  0.21260  Biso   1.000  C
  C17      1.0000 0.61303  0.28740  0.38925  Biso   1.000  C
  C18      1.0000 0.38925  0.88697  0.21260  Biso   1.000  C
  C19      1.0000 0.61303  0.21260  0.11075  Biso   1.000  C
  C20      1.0000 0.38925  0.61303  0.28740  Biso   1.000  C
  C21      1.0000 0.71260  0.38697  0.61075  Biso   1.000  C
  C22      1.0000 0.78740  0.11303  0.61075  Biso   1.000  C
  C23      1.0000 0.38697  0.88925  0.78740  Biso   1.000  C
  C24      1.0000 0.78740  0.38697  0.88925  Biso   1.000  C
  C25      1.0000 0.71260  0.88924  0.11303  Biso   1.000  C
  C26      1.0000 0.78740  0.88924  0.38697  Biso   1.000  C
  C27      1.0000 0.78740  0.61076  0.11303  Biso   1.000  C
  C28      1.0000 0.71260  0.61076  0.38697  Biso   1.000  C
  C29      1.0000 0.11076  0.21260  0.61303  Biso   1.000  C
  C30      1.0000 0.38924  0.28740  0.61303  Biso   1.000  C
  C31      1.0000 0.61303  0.38924  0.28740  Biso   1.000  C
  C32      1.0000 0.88697  0.38924  0.21260  Biso   1.000  C
  C33      1.0000 0.11076  0.28740  0.88697  Biso   1.000  C
  C34      1.0000 0.38924  0.21260  0.88697  Biso   1.000  C
  C35      1.0000 0.11303  0.71260  0.88924  Biso   1.000  C
  C36      1.0000 0.88924  0.11303  0.71260  Biso   1.000  C
  C37      1.0000 0.88697  0.11076  0.28740  Biso   1.000  C
  C38      1.0000 0.28740  0.88697  0.11076  Biso   1.000  C
  C39      1.0000 0.11303  0.78740  0.61076  Biso   1.000  C
  C40      1.0000 0.88924  0.38697  0.78740  Biso   1.000  C
  C41      1.0000 0.38697  0.71260  0.61076  Biso   1.000  C
  C42      1.0000 0.61076  0.11303  0.78740  Biso   1.000  C
  C43      1.0000 0.38697  0.78740  0.88924  Biso   1.000  C
  C44      1.0000 0.61076  0.38697  0.71260  Biso   1.000  C
  C45      1.0000 0.28740  0.61303  0.38924  Biso   1.000  C
  C46      1.0000 0.21260  0.88697  0.38924  Biso   1.000  C
  C47      1.0000 0.61303  0.11076  0.21260  Biso   1.000  C
  C48      1.0000 0.21260  0.61303  0.11076  Biso   1.000  C
  C49      1.0000 0.37545  0.12455  0.77242  Biso   1.000  C
  C50      1.0000 0.12455  0.12455  0.72758  Biso   1.000  C
  C51      1.0000 0.12455  0.37545  0.77242  Biso   1.000  C
  C52      1.0000 0.37545  0.37545  0.72758  Biso   1.000  C
  C53      1.0000 0.87545  0.87545  0.27242  Biso   1.000  C
  C54      1.0000 0.62455  0.62455  0.27242  Biso   1.000  C
  C55      1.0000 0.27242  0.62455  0.62455  Biso   1.000  C
  C56      1.0000 0.22758  0.62455  0.87545  Biso   1.000  C
  C57      1.0000 0.87545  0.62455  0.22758  Biso   1.000  C
  C58      1.0000 0.62455  0.87545  0.22758  Biso   1.000  C
  C59      1.0000 0.77242  0.37545  0.12455  Biso   1.000  C
  C60      1.0000 0.12455  0.77242  0.37545  Biso   1.000  C
  C61      1.0000 0.22758  0.87545  0.62455  Biso   1.000  C
  C62      1.0000 0.62455  0.22758  0.87545  Biso   1.000  C
  C63      1.0000 0.77242  0.12455  0.37545  Biso   1.000  C
  C64      1.0000 0.12455  0.72758  0.12455  Biso   1.000  C
  C65      1.0000 0.72758  0.37545  0.37545  Biso   1.000  C
  C66      1.0000 0.37545  0.77242  0.12455  Biso   1.000  C
  C67      1.0000 0.72758  0.12455  0.12455  Biso   1.000  C
  C68      1.0000 0.37545  0.72758  0.37545  Biso   1.000  C
  C69      1.0000 0.62455  0.27242  0.62455  Biso   1.000  C
  C70      1.0000 0.87545  0.22758  0.62455  Biso   1.000  C
  C71      1.0000 0.27242  0.87545  0.87545  Biso   1.000  C
  C72      1.0000 0.87545  0.27242  0.87545  Biso   1.000  C
  C73      1.0000 0.32682  0.17318  0.92799  Biso   1.000  C
  C74      1.0000 0.17318  0.17318  0.57201  Biso   1.000  C
  C75      1.0000 0.17318  0.32682  0.92799  Biso   1.000  C
  C76      1.0000 0.32682  0.32682  0.57201  Biso   1.000  C
  C77      1.0000 0.82682  0.82682  0.42799  Biso   1.000  C
  C78      1.0000 0.67318  0.67318  0.42799  Biso   1.000  C
  C79      1.0000 0.42799  0.67318  0.67318  Biso   1.000  C
  C80      1.0000 0.07201  0.67318  0.82682  Biso   1.000  C
  C81      1.0000 0.82682  0.67318  0.07201  Biso   1.000  C
  C82      1.0000 0.67318  0.82682  0.07201  Biso   1.000  C
  C83      1.0000 0.92799  0.32682  0.17318  Biso   1.000  C
  C84      1.0000 0.17318  0.92799  0.32682  Biso   1.000  C
  C85      1.0000 0.07201  0.82682  0.67318  Biso   1.000  C
  C86      1.0000 0.67318  0.07201  0.82682  Biso   1.000  C
  C87      1.0000 0.92799  0.17318  0.32682  Biso   1.000  C
  C88      1.0000 0.17318  0.57201  0.17318  Biso   1.000  C
  C89      1.0000 0.57201  0.32682  0.32682  Biso   1.000  C
  C90      1.0000 0.32682  0.92799  0.17318  Biso   1.000  C
  C91      1.0000 0.57201  0.17318  0.17318  Biso   1.000  C
  C92      1.0000 0.32682  0.57201  0.32682  Biso   1.000  C
  C93      1.0000 0.67318  0.42799  0.67318  Biso   1.000  C
  C94      1.0000 0.82682  0.07201  0.67318  Biso   1.000  C
  C95      1.0000 0.42799  0.82682  0.82682  Biso   1.000  C
  C96      1.0000 0.82682  0.42799  0.82682  Biso   1.000  C
  O1       1.0000 0.39907  0.10093  0.70522  Biso   1.000  O
  O2       1.0000 0.10093  0.10094  0.79478  Biso   1.000  O
  O3       1.0000 0.10093  0.39907  0.70522  Biso   1.000  O
  O4       1.0000 0.39907  0.39907  0.79478  Biso   1.000  O
  O5       1.0000 0.89906  0.89907  0.20522  Biso   1.000  O
  O6       1.0000 0.60093  0.60093  0.20522  Biso   1.000  O
  O7       1.0000 0.20522  0.60093  0.60093  Biso   1.000  O
  O8       1.0000 0.29478  0.60093  0.89907  Biso   1.000  O
  O9       1.0000 0.89907  0.60093  0.29478  Biso   1.000  O
  O10      1.0000 0.60093  0.89907  0.29478  Biso   1.000  O
  O11      1.0000 0.70522  0.39907  0.10093  Biso   1.000  O
  O12      1.0000 0.10093  0.70522  0.39907  Biso   1.000  O
  O13      1.0000 0.29478  0.89907  0.60093  Biso   1.000  O
  O14      1.0000 0.60093  0.29478  0.89907  Biso   1.000  O
  O15      1.0000 0.70522  0.10093  0.39907  Biso   1.000  O
  O16      1.0000 0.10094  0.79478  0.10093  Biso   1.000  O
  O17      1.0000 0.79478  0.39907  0.39907  Biso   1.000  O
  O18      1.0000 0.39907  0.70522  0.10093  Biso   1.000  O
  O19      1.0000 0.79478  0.10093  0.10094  Biso   1.000  O
  O20      1.0000 0.39907  0.79478  0.39907  Biso   1.000  O
  O21      1.0000 0.60093  0.20522  0.60093  Biso   1.000  O
  O22      1.0000 0.89907  0.29478  0.60093  Biso   1.000  O
  O23      1.0000 0.20522  0.89906  0.89907  Biso   1.000  O
  O24      1.0000 0.89907  0.20522  0.89907  Biso   1.000  O
  H1       1.0000 0.23603  0.07779  0.91231  Biso   1.000  H
  H2       1.0000 0.26397  0.07779  0.58769  Biso   1.000  H
  H3       1.0000 0.26397  0.42221  0.91231  Biso   1.000  H
  H4       1.0000 0.23603  0.42221  0.58769  Biso   1.000  H
  H5       1.0000 0.92221  0.73603  0.41231  Biso   1.000  H
  H6       1.0000 0.57779  0.76397  0.41231  Biso   1.000  H
  H7       1.0000 0.41231  0.57779  0.76397  Biso   1.000  H
  H8       1.0000 0.08769  0.57779  0.73603  Biso   1.000  H
  H9       1.0000 0.92221  0.76397  0.08769  Biso   1.000  H
  H10      1.0000 0.57779  0.73603  0.08769  Biso   1.000  H
  H11      1.0000 0.91231  0.23603  0.07779  Biso   1.000  H
  H12      1.0000 0.07779  0.91231  0.23603  Biso   1.000  H
  H13      1.0000 0.08769  0.92221  0.76397  Biso   1.000  H
  H14      1.0000 0.76397  0.08769  0.92221  Biso   1.000  H
  H15      1.0000 0.91231  0.26397  0.42221  Biso   1.000  H
  H16      1.0000 0.07779  0.58769  0.26397  Biso   1.000  H
  H17      1.0000 0.58769  0.23603  0.42221  Biso   1.000  H
  H18      1.0000 0.42221  0.91231  0.26397  Biso   1.000  H
  H19      1.0000 0.58769  0.26397  0.07779  Biso   1.000  H
  H20      1.0000 0.42221  0.58769  0.23603  Biso   1.000  H
  H21      1.0000 0.76397  0.41231  0.57779  Biso   1.000  H
  H22      1.0000 0.73603  0.08769  0.57779  Biso   1.000  H
  H23      1.0000 0.41231  0.92221  0.73603  Biso   1.000  H
  H24      1.0000 0.73603  0.41231  0.92221  Biso   1.000  H
  H25      1.0000 0.76397  0.92221  0.08769  Biso   1.000  H
  H26      1.0000 0.73603  0.92221  0.41231  Biso   1.000  H
  H27      1.0000 0.73603  0.57779  0.08769  Biso   1.000  H
  H28      1.0000 0.76397  0.57779  0.41231  Biso   1.000  H
  H29      1.0000 0.07779  0.26397  0.58769  Biso   1.000  H
  H30      1.0000 0.42221  0.23603  0.58769  Biso   1.000  H
  H31      1.0000 0.58769  0.42221  0.23603  Biso   1.000  H
  H32      1.0000 0.91231  0.42221  0.26397  Biso   1.000  H
  H33      1.0000 0.07779  0.23603  0.91231  Biso   1.000  H
  H34      1.0000 0.42221  0.26397  0.91231  Biso   1.000  H
  H35      1.0000 0.08769  0.76397  0.92221  Biso   1.000  H
  H36      1.0000 0.92221  0.08769  0.76397  Biso   1.000  H
  H37      1.0000 0.91231  0.07779  0.23603  Biso   1.000  H
  H38      1.0000 0.23603  0.91231  0.07779  Biso   1.000  H
  H39      1.0000 0.08769  0.73603  0.57779  Biso   1.000  H
  H40      1.0000 0.92221  0.41231  0.73603  Biso   1.000  H
  H41      1.0000 0.41231  0.76397  0.57779  Biso   1.000  H
  H42      1.0000 0.57779  0.08769  0.73603  Biso   1.000  H
  H43      1.0000 0.41231  0.73603  0.92221  Biso   1.000  H
  H44      1.0000 0.57779  0.41231  0.76397  Biso   1.000  H
  H45      1.0000 0.23603  0.58769  0.42221  Biso   1.000  H
  H46      1.0000 0.26397  0.91231  0.42221  Biso   1.000  H
  H47      1.0000 0.58769  0.07779  0.26397  Biso   1.000  H
  H48      1.0000 0.26397  0.58769  0.07779  Biso   1.000  H
  H49      1.0000 0.30859  0.19141  0.98847  Biso   1.000  H
  H50      1.0000 0.19141  0.19141  0.51153  Biso   1.000  H
  H51      1.0000 0.19141  0.30859  0.98847  Biso   1.000  H
  H52      1.0000 0.30859  0.30859  0.51153  Biso   1.000  H
  H53      1.0000 0.80859  0.80859  0.48847  Biso   1.000  H
  H54      1.0000 0.69141  0.69141  0.48847  Biso   1.000  H
  H55      1.0000 0.48847  0.69141  0.69141  Biso   1.000  H
  H56      1.0000 0.01153  0.69141  0.80859  Biso   1.000  H
  H57      1.0000 0.80859  0.69141  0.01153  Biso   1.000  H
  H58      1.0000 0.69141  0.80859  0.01153  Biso   1.000  H
  H59      1.0000 0.98847  0.30859  0.19141  Biso   1.000  H
  H60      1.0000 0.19141  0.98847  0.30859  Biso   1.000  H
  H61      1.0000 0.01153  0.80859  0.69141  Biso   1.000  H
  H62      1.0000 0.69141  0.01153  0.80859  Biso   1.000  H
  H63      1.0000 0.98847  0.19141  0.30859  Biso   1.000  H
  H64      1.0000 0.19141  0.51153  0.19141  Biso   1.000  H
  H65      1.0000 0.51153  0.30859  0.30859  Biso   1.000  H
  H66      1.0000 0.30859  0.98847  0.19141  Biso   1.000  H
  H67      1.0000 0.51153  0.19141  0.19141  Biso   1.000  H
  H68      1.0000 0.30859  0.51153  0.30859  Biso   1.000  H
  H69      1.0000 0.69141  0.48847  0.69141  Biso   1.000  H
  H70      1.0000 0.80859  0.01153  0.69141  Biso   1.000  H
  H71      1.0000 0.48847  0.80859  0.80859  Biso   1.000  H
  H72      1.0000 0.80859  0.48847  0.80859  Biso   1.000  H
