data_image0
_cell_length_a       10.9432
_cell_length_b       10.5798
_cell_length_c       12.4083
_cell_angle_alpha    109.776
_cell_angle_beta     94.42
_cell_angle_gamma    122.073

_symmetry_space_group_name_H-M    "P 1"
_symmetry_int_tables_number       1

loop_
  _symmetry_equiv_pos_as_xyz
  'x, y, z'

loop_
  _atom_site_label
  _atom_site_occupancy
  _atom_site_fract_x
  _atom_site_fract_y
  _atom_site_fract_z
  _atom_site_thermal_displace_type
  _atom_site_B_iso_or_equiv
  _atom_site_type_symbol
  C1       1.0000 0.52552  0.44305  0.65560  Biso   1.000  C
  C2       1.0000 0.46876  0.56017  0.35349  Biso   1.000  C
  C3       1.0000 0.40394  0.57313  0.73965  Biso   1.000  C
  C4       1.0000 0.59050  0.43011  0.26999  Biso   1.000  C
  C5       1.0000 0.67406  0.70962  0.84695  Biso   1.000  C
  C6       1.0000 0.32077  0.29331  0.16223  Biso   1.000  C
  N1       1.0000 0.52034  0.54671  0.77015  Biso   1.000  N
  N2       1.0000 0.47423  0.45655  0.23904  Biso   1.000  N
  O1       1.0000 0.73467  0.43739  0.77783  Biso   1.000  O
  O2       1.0000 0.25897  0.56475  0.23134  Biso   1.000  O
  O3       1.0000 0.45249  0.23867  0.75616  Biso   1.000  O
  O4       1.0000 0.54074  0.76340  0.25199  Biso   1.000  O
  O5       1.0000 0.54577  0.17949  0.57504  Biso   1.000  O
  O6       1.0000 0.44883  0.82428  0.43333  Biso   1.000  O
  O7       1.0000 0.15334  0.25351  0.58227  Biso   1.000  O
  O8       1.0000 0.84077  0.75009  0.42727  Biso   1.000  O
  O9       1.0000 0.12071  0.47252  0.72001  Biso   1.000  O
  O10      1.0000 0.87404  0.53095  0.29082  Biso   1.000  O
  O11      1.0000 0.22566  0.35023  0.81306  Biso   1.000  O
  O12      1.0000 0.76902  0.65191  0.19619  Biso   1.000  O
  O13      1.0000 0.59425  0.89917  0.98366  Biso   1.000  O
  O14      1.0000 0.40209  0.10509  0.02592  Biso   1.000  O
  O15      1.0000 0.81637  0.92311  0.09922  Biso   1.000  O
  O16      1.0000 0.17890  0.07958  0.91015  Biso   1.000  O
  O17      1.0000 0.54262  0.64579  0.00954  Biso   1.000  O
  O18      1.0000 0.45215  0.35745  0.99954  Biso   1.000  O
  O19      1.0000 0.76048  0.02227  0.76429  Biso   1.000  O
  O20      1.0000 0.23548  0.98065  0.24283  Biso   1.000  O
  O21      1.0000 0.60721  0.18531  0.91375  Biso   1.000  O
  O22      1.0000 0.38532  0.81543  0.09324  Biso   1.000  O
  O23      1.0000 0.33850  0.80160  0.60983  Biso   1.000  O
  O24      1.0000 0.65908  0.20324  0.39998  Biso   1.000  O
  O25      1.0000 0.25182  0.80613  0.81329  Biso   1.000  O
  O26      1.0000 0.74602  0.19838  0.19632  Biso   1.000  O
  O27      1.0000 0.14356  0.97244  0.53333  Biso   1.000  O
  O28      1.0000 0.85046  0.03110  0.47626  Biso   1.000  O
  O29      1.0000 0.11760  0.69422  0.24016  Biso   1.000  O
  O30      1.0000 0.87702  0.30935  0.76943  Biso   1.000  O
  O31      1.0000 0.87510  0.56846  0.01669  Biso   1.000  O
  O32      1.0000 0.11675  0.42599  0.99232  Biso   1.000  O
  Na1      1.0000 0.51052  0.91151  0.80997  Biso   1.000  Na
  Na2      1.0000 0.48924  0.09349  0.19921  Biso   1.000  Na
  Na3      1.0000 0.22390  0.97396  0.71769  Biso   1.000  Na
  Na4      1.0000 0.76585  0.02615  0.29158  Biso   1.000  Na
  Na5      1.0000 0.31215  0.94284  0.43094  Biso   1.000  Na
  Na6      1.0000 0.68257  0.06229  0.57826  Biso   1.000  Na
  Na7      1.0000 0.12031  0.66702  0.02781  Biso   1.000  Na
  Na8      1.0000 0.86940  0.32273  0.97688  Biso   1.000  Na
  P1       1.0000 0.57046  0.31626  0.69127  Biso   1.000  P
  P2       1.0000 0.42332  0.68642  0.31748  Biso   1.000  P
  P3       1.0000 0.20850  0.39448  0.70855  Biso   1.000  P
  P4       1.0000 0.78603  0.60864  0.30131  Biso   1.000  P
  P5       1.0000 0.66799  0.81198  0.99862  Biso   1.000  P
  P6       1.0000 0.32744  0.19127  0.01078  Biso   1.000  P
  Co1      1.0000 0.46329  0.43091  0.87367  Biso   1.000  Co
  Co2      1.0000 0.53130  0.57206  0.13532  Biso   1.000  Co
  H1       1.0000 0.41102  0.36040  0.58897  Biso   1.000  H
  H2       1.0000 0.58324  0.64303  0.42015  Biso   1.000  H
  H3       1.0000 0.60825  0.52222  0.62078  Biso   1.000  H
  H4       1.0000 0.38611  0.48107  0.38840  Biso   1.000  H
  H5       1.0000 0.41657  0.60999  0.66582  Biso   1.000  H
  H6       1.0000 0.57699  0.39252  0.34345  Biso   1.000  H
  H7       1.0000 0.42176  0.67103  0.82197  Biso   1.000  H
  H8       1.0000 0.57288  0.33250  0.18757  Biso   1.000  H
  H9       1.0000 0.75693  0.68244  0.85603  Biso   1.000  H
  H10      1.0000 0.23739  0.31973  0.15290  Biso   1.000  H
  H11      1.0000 0.70797  0.79174  0.80264  Biso   1.000  H
  H12      1.0000 0.28734  0.21127  0.20656  Biso   1.000  H
  H13      1.0000 0.83672  0.00102  0.76700  Biso   1.000  H
  H14      1.0000 0.15811  0.99998  0.23727  Biso   1.000  H
  H15      1.0000 0.81832  0.13858  0.76995  Biso   1.000  H
  H16      1.0000 0.17756  0.86417  0.23657  Biso   1.000  H
  H17      1.0000 0.17068  0.63920  0.24003  Biso   1.000  H
  H18      1.0000 0.82322  0.36378  0.76948  Biso   1.000  H
  H19      1.0000 0.01993  0.63046  0.26069  Biso   1.000  H
  H20      1.0000 0.97470  0.37315  0.74864  Biso   1.000  H
  H21      1.0000 0.36914  0.78791  0.53469  Biso   1.000  H
  H22      1.0000 0.62718  0.21687  0.47454  Biso   1.000  H
  H23      1.0000 0.25115  0.69144  0.59442  Biso   1.000  H
  H24      1.0000 0.74638  0.31345  0.41537  Biso   1.000  H
  H25      1.0000 0.57357  0.22867  0.86902  Biso   1.000  H
  H26      1.0000 0.41896  0.77206  0.13797  Biso   1.000  H
  H27      1.0000 0.54021  0.16586  0.96668  Biso   1.000  H
  H28      1.0000 0.45274  0.83536  0.04079  Biso   1.000  H
  H29      1.0000 0.27424  0.87818  0.89813  Biso   1.000  H
  H30      1.0000 0.72314  0.12611  0.11144  Biso   1.000  H
  H31      1.0000 0.19777  0.68613  0.79442  Biso   1.000  H
  H32      1.0000 0.79910  0.31834  0.21525  Biso   1.000  H
  H33      1.0000 0.03090  0.88454  0.49025  Biso   1.000  H
  H34      1.0000 0.96320  0.11920  0.51885  Biso   1.000  H
  H35      1.0000 0.15549  0.07961  0.55702  Biso   1.000  H
  H36      1.0000 0.83874  0.92403  0.45262  Biso   1.000  H
  H37      1.0000 0.83354  0.60117  0.08195  Biso   1.000  H
  H38      1.0000 0.15997  0.39581  0.92753  Biso   1.000  H
  H39      1.0000 0.80528  0.52943  0.93848  Biso   1.000  H
  H40      1.0000 0.18691  0.46736  0.07122  Biso   1.000  H
