data_image0
_cell_length_a       9.63639
_cell_length_b       11.9017
_cell_length_c       10.7686
_cell_angle_alpha    82.8481
_cell_angle_beta     80.5315
_cell_angle_gamma    76.9428

_symmetry_space_group_name_H-M    "P 1"
_symmetry_int_tables_number       1

loop_
  _symmetry_equiv_pos_as_xyz
  'x, y, z'

loop_
  _atom_site_label
  _atom_site_occupancy
  _atom_site_fract_x
  _atom_site_fract_y
  _atom_site_fract_z
  _atom_site_thermal_displace_type
  _atom_site_B_iso_or_equiv
  _atom_site_type_symbol
  Zn1      1.0000 0.57094  0.31088  0.31334  Biso   1.000  Zn
  Zn2      1.0000 0.42781  0.68927  0.68720  Biso   1.000  Zn
  Li1      1.0000 0.41715  0.45662  0.10214  Biso   1.000  Li
  Li2      1.0000 0.58207  0.54377  0.89913  Biso   1.000  Li
  O1       1.0000 0.43396  0.29152  0.11404  Biso   1.000  O
  O2       1.0000 0.56446  0.70863  0.88957  Biso   1.000  O
  O3       1.0000 0.57803  0.16531  0.23599  Biso   1.000  O
  O4       1.0000 0.42183  0.83401  0.76551  Biso   1.000  O
  C1       1.0000 0.50545  0.19204  0.14204  Biso   1.000  C
  C2       1.0000 0.49301  0.80777  0.86041  Biso   1.000  C
  C3       1.0000 0.50521  0.09455  0.06641  Biso   1.000  C
  C4       1.0000 0.49182  0.90568  0.93597  Biso   1.000  C
  C5       1.0000 0.48270  0.98933  0.13238  Biso   1.000  C
  C6       1.0000 0.51400  0.01100  0.87001  Biso   1.000  C
  H1       1.0000 0.47124  0.98107  0.23489  Biso   1.000  H
  H2       1.0000 0.52550  0.01930  0.76751  Biso   1.000  H
  C7       1.0000 0.52192  0.10373  0.93376  Biso   1.000  C
  C8       1.0000 0.47483  0.89658  0.06865  Biso   1.000  C
  Br1      1.0000 0.56787  0.23977  0.83321  Biso   1.000  Br
  Br2      1.0000 0.42877  0.76066  0.16927  Biso   1.000  Br
  O5       1.0000 0.38443  0.36895  0.40596  Biso   1.000  O
  O6       1.0000 0.61390  0.63090  0.59418  Biso   1.000  O
  O7       1.0000 0.31216  0.51265  0.25725  Biso   1.000  O
  O8       1.0000 0.68704  0.48850  0.74386  Biso   1.000  O
  C9       1.0000 0.29092  0.45370  0.36094  Biso   1.000  C
  C10      1.0000 0.70792  0.54686  0.63974  Biso   1.000  C
  C11      1.0000 0.14433  0.47715  0.43902  Biso   1.000  C
  C12      1.0000 0.85456  0.52357  0.56175  Biso   1.000  C
  C13      1.0000 0.03060  0.53720  0.37395  Biso   1.000  C
  C14      1.0000 0.96833  0.46360  0.62688  Biso   1.000  C
  H3       1.0000 0.05691  0.56500  0.27445  Biso   1.000  H
  H4       1.0000 0.94199  0.43583  0.72640  Biso   1.000  H
  C15      1.0000 0.11049  0.44045  0.56803  Biso   1.000  C
  C16      1.0000 0.88844  0.56045  0.43279  Biso   1.000  C
  Br3      1.0000 0.25115  0.35877  0.67355  Biso   1.000  Br
  Br4      1.0000 0.74802  0.64254  0.32718  Biso   1.000  Br
  O9       1.0000 0.68270  0.22921  0.46253  Biso   1.000  O
  O10      1.0000 0.31292  0.77195  0.54073  Biso   1.000  O
  O11      1.0000 0.58832  0.07397  0.52109  Biso   1.000  O
  O12      1.0000 0.40755  0.92708  0.48217  Biso   1.000  O
  H5       1.0000 0.61874  0.98831  0.54053  Biso   1.000  H
  H6       1.0000 0.37722  0.01277  0.46287  Biso   1.000  H
  C17      1.0000 0.70131  0.12396  0.49487  Biso   1.000  C
  C18      1.0000 0.29447  0.87722  0.50843  Biso   1.000  C
  C19      1.0000 0.85036  0.05475  0.50237  Biso   1.000  C
  C20      1.0000 0.14545  0.94646  0.50099  Biso   1.000  C
  C21      1.0000 0.89236  0.93477  0.53579  Biso   1.000  C
  C22      1.0000 0.10349  0.06643  0.46754  Biso   1.000  C
  C23      1.0000 0.03676  0.88238  0.53521  Biso   1.000  C
  C24      1.0000 0.95907  0.11883  0.46812  Biso   1.000  C
  H7       1.0000 0.06880  0.79012  0.56217  Biso   1.000  H
  H8       1.0000 0.92706  0.21108  0.44110  Biso   1.000  H
  Br5      1.0000 0.75994  0.83266  0.57900  Biso   1.000  Br
  Br6      1.0000 0.23608  0.16841  0.42422  Biso   1.000  Br
  O13      1.0000 0.37679  0.53110  0.93731  Biso   1.000  O
  O14      1.0000 0.62272  0.46881  0.06383  Biso   1.000  O
  O15      1.0000 0.26604  0.62409  0.77271  Biso   1.000  O
  O16      1.0000 0.73316  0.37596  0.22868  Biso   1.000  O
  C25      1.0000 0.26714  0.56678  0.88141  Biso   1.000  C
  C26      1.0000 0.73220  0.43332  0.11998  Biso   1.000  C
  C27      1.0000 0.12716  0.53701  0.94351  Biso   1.000  C
  C28      1.0000 0.87218  0.46323  0.05807  Biso   1.000  C
  C29      1.0000 0.99243  0.61348  0.94644  Biso   1.000  C
  C30      1.0000 0.00692  0.38680  0.05528  Biso   1.000  C
  C31      1.0000 0.86722  0.57699  0.00239  Biso   1.000  C
  C32      1.0000 0.13211  0.42328  0.99924  Biso   1.000  C
  H9       1.0000 0.76382  0.63753  0.00455  Biso   1.000  H
  H10      1.0000 0.23548  0.36271  0.99712  Biso   1.000  H
  Br7      1.0000 0.97174  0.77441  0.88379  Biso   1.000  Br
  Br8      1.0000 0.02778  0.22596  0.11843  Biso   1.000  Br
