data_image0
_cell_length_a       29.6553
_cell_length_b       29.6603
_cell_length_c       8.08515
_cell_angle_alpha    90.0169
_cell_angle_beta     89.9895
_cell_angle_gamma    119.953

_symmetry_space_group_name_H-M    "P 1"
_symmetry_int_tables_number       1

loop_
  _symmetry_equiv_pos_as_xyz
  'x, y, z'

loop_
  _atom_site_label
  _atom_site_occupancy
  _atom_site_fract_x
  _atom_site_fract_y
  _atom_site_fract_z
  _atom_site_thermal_displace_type
  _atom_site_B_iso_or_equiv
  _atom_site_type_symbol
  In1      1.0000 0.37642  0.32366  0.39653  Biso   1.000  In
  In2      1.0000 0.67646  0.05272  0.39664  Biso   1.000  In
  In3      1.0000 0.94748  0.62382  0.39661  Biso   1.000  In
  In4      1.0000 0.04310  0.65691  0.72993  Biso   1.000  In
  In5      1.0000 0.34319  0.38615  0.72991  Biso   1.000  In
  In6      1.0000 0.61401  0.95712  0.72986  Biso   1.000  In
  In7      1.0000 0.70961  0.99017  0.06334  Biso   1.000  In
  In8      1.0000 0.00995  0.71943  0.06342  Biso   1.000  In
  In9      1.0000 0.28077  0.29057  0.06327  Biso   1.000  In
  In10     1.0000 0.62364  0.67640  0.60345  Biso   1.000  In
  In11     1.0000 0.32354  0.94735  0.60338  Biso   1.000  In
  In12     1.0000 0.05256  0.37616  0.60346  Biso   1.000  In
  In13     1.0000 0.95696  0.34309  0.27013  Biso   1.000  In
  In14     1.0000 0.65685  0.61391  0.27008  Biso   1.000  In
  In15     1.0000 0.38598  0.04295  0.27015  Biso   1.000  In
  In16     1.0000 0.29039  0.00988  0.93669  Biso   1.000  In
  In17     1.0000 0.99010  0.28055  0.93663  Biso   1.000  In
  In18     1.0000 0.71929  0.70947  0.93670  Biso   1.000  In
  O1       1.0000 0.31727  0.23966  0.37484  Biso   1.000  O
  O2       1.0000 0.76049  0.07753  0.37472  Biso   1.000  O
  O3       1.0000 0.92258  0.68299  0.37478  Biso   1.000  O
  O4       1.0000 0.98395  0.57288  0.70823  Biso   1.000  O
  O5       1.0000 0.42726  0.41103  0.70808  Biso   1.000  O
  O6       1.0000 0.58907  0.01627  0.70813  Biso   1.000  O
  O7       1.0000 0.65044  0.90619  0.04166  Biso   1.000  O
  O8       1.0000 0.09395  0.74425  0.04152  Biso   1.000  O
  O9       1.0000 0.25580  0.34967  0.04153  Biso   1.000  O
  O10      1.0000 0.68280  0.76040  0.62516  Biso   1.000  O
  O11      1.0000 0.23952  0.92254  0.62532  Biso   1.000  O
  O12      1.0000 0.07749  0.31702  0.62527  Biso   1.000  O
  O13      1.0000 0.01612  0.42711  0.29183  Biso   1.000  O
  O14      1.0000 0.57279  0.58904  0.29191  Biso   1.000  O
  O15      1.0000 0.41092  0.98380  0.29189  Biso   1.000  O
  O16      1.0000 0.34957  0.09386  0.95834  Biso   1.000  O
  O17      1.0000 0.90609  0.25575  0.95849  Biso   1.000  O
  O18      1.0000 0.74422  0.65034  0.95848  Biso   1.000  O
  O19      1.0000 0.28355  0.21859  0.11437  Biso   1.000  O
  O20      1.0000 0.78160  0.06487  0.11427  Biso   1.000  O
  O21      1.0000 0.93520  0.71673  0.11439  Biso   1.000  O
  O22      1.0000 0.95018  0.55180  0.44784  Biso   1.000  O
  O23      1.0000 0.44837  0.39835  0.44765  Biso   1.000  O
  O24      1.0000 0.60173  0.05003  0.44776  Biso   1.000  O
  O25      1.0000 0.61669  0.88509  0.78125  Biso   1.000  O
  O26      1.0000 0.11511  0.73156  0.78117  Biso   1.000  O
  O27      1.0000 0.26847  0.38347  0.78121  Biso   1.000  O
  O28      1.0000 0.71654  0.78147  0.88560  Biso   1.000  O
  O29      1.0000 0.21841  0.93517  0.88581  Biso   1.000  O
  O30      1.0000 0.06485  0.28325  0.88564  Biso   1.000  O
  O31      1.0000 0.04984  0.44817  0.55227  Biso   1.000  O
  O32      1.0000 0.55167  0.60171  0.55234  Biso   1.000  O
  O33      1.0000 0.39829  0.95006  0.55228  Biso   1.000  O
  O34      1.0000 0.38330  0.11496  0.21878  Biso   1.000  O
  O35      1.0000 0.88496  0.26844  0.21887  Biso   1.000  O
  O36      1.0000 0.73157  0.61657  0.21883  Biso   1.000  O
  O37      1.0000 0.28066  0.03645  0.68672  Biso   1.000  O
  O38      1.0000 0.96354  0.24433  0.68660  Biso   1.000  O
  O39      1.0000 0.75553  0.71912  0.68671  Biso   1.000  O
  O40      1.0000 0.94724  0.36958  0.02010  Biso   1.000  O
  O41      1.0000 0.63038  0.57774  0.02000  Biso   1.000  O
  O42      1.0000 0.42217  0.05262  0.02010  Biso   1.000  O
  O43      1.0000 0.61392  0.70294  0.35345  Biso   1.000  O
  O44      1.0000 0.29701  0.91113  0.35335  Biso   1.000  O
  O45      1.0000 0.08878  0.38581  0.35345  Biso   1.000  O
  O46      1.0000 0.71932  0.96360  0.31333  Biso   1.000  O
  O47      1.0000 0.03653  0.75565  0.31344  Biso   1.000  O
  O48      1.0000 0.24453  0.28090  0.31328  Biso   1.000  O
  O49      1.0000 0.05280  0.63039  0.97997  Biso   1.000  O
  O50      1.0000 0.36966  0.42232  0.98000  Biso   1.000  O
  O51      1.0000 0.57783  0.94744  0.97991  Biso   1.000  O
  O52      1.0000 0.38615  0.29713  0.64652  Biso   1.000  O
  O53      1.0000 0.70300  0.08894  0.64667  Biso   1.000  O
  O54      1.0000 0.91127  0.61419  0.64664  Biso   1.000  O
  O55      1.0000 0.24002  0.08065  0.76694  Biso   1.000  O
  O56      1.0000 0.91946  0.15955  0.76662  Biso   1.000  O
  O57      1.0000 0.84032  0.75975  0.76691  Biso   1.000  O
  O58      1.0000 0.90676  0.41390  0.10065  Biso   1.000  O
  O59      1.0000 0.58628  0.49298  0.10023  Biso   1.000  O
  O60      1.0000 0.50693  0.09325  0.10046  Biso   1.000  O
  O61      1.0000 0.57330  0.74714  0.43389  Biso   1.000  O
  O62      1.0000 0.25302  0.82637  0.43360  Biso   1.000  O
  O63      1.0000 0.17355  0.42659  0.43382  Biso   1.000  O
  O64      1.0000 0.75993  0.91938  0.23310  Biso   1.000  O
  O65      1.0000 0.08053  0.84044  0.23351  Biso   1.000  O
  O66      1.0000 0.15974  0.24023  0.23307  Biso   1.000  O
  O67      1.0000 0.09333  0.58611  0.89951  Biso   1.000  O
  O68      1.0000 0.41378  0.50707  0.89974  Biso   1.000  O
  O69      1.0000 0.49306  0.90684  0.89956  Biso   1.000  O
  O70      1.0000 0.42674  0.25290  0.56606  Biso   1.000  O
  O71      1.0000 0.74702  0.17370  0.56646  Biso   1.000  O
  O72      1.0000 0.82649  0.57344  0.56633  Biso   1.000  O
  O73      1.0000 0.35863  0.33807  0.15244  Biso   1.000  O
  O74      1.0000 0.66206  0.02054  0.15250  Biso   1.000  O
  O75      1.0000 0.97968  0.64159  0.15253  Biso   1.000  O
  O76      1.0000 0.02531  0.67136  0.48592  Biso   1.000  O
  O77      1.0000 0.32879  0.35392  0.48585  Biso   1.000  O
  O78      1.0000 0.64624  0.97489  0.48584  Biso   1.000  O
  O79      1.0000 0.69185  0.00459  0.81919  Biso   1.000  O
  O80      1.0000 0.99559  0.68728  0.81923  Biso   1.000  O
  O81      1.0000 0.31293  0.30832  0.81912  Biso   1.000  O
  O82      1.0000 0.64143  0.66199  0.84754  Biso   1.000  O
  O83      1.0000 0.33794  0.97953  0.84749  Biso   1.000  O
  O84      1.0000 0.02037  0.35839  0.84754  Biso   1.000  O
  O85      1.0000 0.97474  0.32861  0.51414  Biso   1.000  O
  O86      1.0000 0.67126  0.64613  0.51414  Biso   1.000  O
  O87      1.0000 0.35375  0.02518  0.51415  Biso   1.000  O
  O88      1.0000 0.30815  0.99547  0.18081  Biso   1.000  O
  O89      1.0000 0.00448  0.31271  0.18080  Biso   1.000  O
  O90      1.0000 0.68713  0.69174  0.18085  Biso   1.000  O
  H1       1.0000 0.22413  0.04548  0.94893  Biso   1.000  H
  H2       1.0000 0.95462  0.17879  0.94866  Biso   1.000  H
  H3       1.0000 0.82105  0.77571  0.94894  Biso   1.000  H
  H4       1.0000 0.89069  0.37864  0.28254  Biso   1.000  H
  H5       1.0000 0.62148  0.51218  0.28221  Biso   1.000  H
  H6       1.0000 0.48770  0.10924  0.28245  Biso   1.000  H
  H7       1.0000 0.55736  0.71197  0.61585  Biso   1.000  H
  H8       1.0000 0.28815  0.84561  0.61560  Biso   1.000  H
  H9       1.0000 0.15429  0.44249  0.61583  Biso   1.000  H
  H10      1.0000 0.77585  0.95455  0.05112  Biso   1.000  H
  H11      1.0000 0.04540  0.82119  0.05144  Biso   1.000  H
  H12      1.0000 0.17902  0.22427  0.05103  Biso   1.000  H
  H13      1.0000 0.10936  0.62134  0.71759  Biso   1.000  H
  H14      1.0000 0.37857  0.48787  0.71777  Biso   1.000  H
  H15      1.0000 0.51229  0.89083  0.71757  Biso   1.000  H
  H16      1.0000 0.44270  0.28809  0.38411  Biso   1.000  H
  H17      1.0000 0.71189  0.15448  0.38445  Biso   1.000  H
  H18      1.0000 0.84575  0.55755  0.38431  Biso   1.000  H
  H19      1.0000 0.19827  0.99328  0.08071  Biso   1.000  H
  H20      1.0000 0.00683  0.20511  0.08047  Biso   1.000  H
  H21      1.0000 0.79466  0.80158  0.08076  Biso   1.000  H
  H22      1.0000 0.86481  0.32645  0.41434  Biso   1.000  H
  H23      1.0000 0.67367  0.53851  0.41406  Biso   1.000  H
  H24      1.0000 0.46132  0.13509  0.41432  Biso   1.000  H
  H25      1.0000 0.53151  0.65980  0.74772  Biso   1.000  H
  H26      1.0000 0.34034  0.87197  0.74751  Biso   1.000  H
  H27      1.0000 0.12786  0.46828  0.74777  Biso   1.000  H
  H28      1.0000 0.80172  0.00675  0.91934  Biso   1.000  H
  H29      1.0000 0.99319  0.79485  0.91963  Biso   1.000  H
  H30      1.0000 0.20544  0.19844  0.91919  Biso   1.000  H
  H31      1.0000 0.13526  0.67353  0.58579  Biso   1.000  H
  H32      1.0000 0.32637  0.46154  0.58592  Biso   1.000  H
  H33      1.0000 0.53867  0.86497  0.58571  Biso   1.000  H
  H34      1.0000 0.46854  0.34027  0.25222  Biso   1.000  H
  H35      1.0000 0.65971  0.12814  0.25255  Biso   1.000  H
  H36      1.0000 0.87215  0.53173  0.25238  Biso   1.000  H
  H37      1.0000 0.36903  0.37421  0.12083  Biso   1.000  H
  H38      1.0000 0.62592  0.99484  0.12084  Biso   1.000  H
  H39      1.0000 0.00541  0.63115  0.12085  Biso   1.000  H
  H40      1.0000 0.03574  0.70751  0.45430  Biso   1.000  H
  H41      1.0000 0.29265  0.32821  0.45423  Biso   1.000  H
  H42      1.0000 0.67198  0.96445  0.45424  Biso   1.000  H
  H43      1.0000 0.70231  0.04074  0.78759  Biso   1.000  H
  H44      1.0000 0.95944  0.66161  0.78757  Biso   1.000  H
  H45      1.0000 0.33866  0.29787  0.78752  Biso   1.000  H
  H46      1.0000 0.63101  0.62585  0.87916  Biso   1.000  H
  H47      1.0000 0.37408  0.00524  0.87919  Biso   1.000  H
  H48      1.0000 0.99463  0.36882  0.87922  Biso   1.000  H
  H49      1.0000 0.96432  0.29247  0.54572  Biso   1.000  H
  H50      1.0000 0.70740  0.67183  0.54578  Biso   1.000  H
  H51      1.0000 0.32800  0.03561  0.54576  Biso   1.000  H
  H52      1.0000 0.29769  0.95932  0.21244  Biso   1.000  H
  H53      1.0000 0.04063  0.33838  0.21245  Biso   1.000  H
  H54      1.0000 0.66141  0.70219  0.21245  Biso   1.000  H
  N1       1.0000 0.23007  0.02872  0.05529  Biso   1.000  N
  N2       1.0000 0.97136  0.20147  0.05507  Biso   1.000  N
  N3       1.0000 0.79836  0.76978  0.05533  Biso   1.000  N
  N4       1.0000 0.89662  0.36188  0.38891  Biso   1.000  N
  N5       1.0000 0.63820  0.53485  0.38863  Biso   1.000  N
  N6       1.0000 0.46502  0.10330  0.38886  Biso   1.000  N
  N7       1.0000 0.56331  0.69523  0.72223  Biso   1.000  N
  N8       1.0000 0.30486  0.86829  0.72203  Biso   1.000  N
  N9       1.0000 0.13160  0.43651  0.72225  Biso   1.000  N
  N10      1.0000 0.76992  0.97132  0.94475  Biso   1.000  N
  N11      1.0000 0.02866  0.79851  0.94502  Biso   1.000  N
  N12      1.0000 0.20171  0.23022  0.94464  Biso   1.000  N
  N13      1.0000 0.10344  0.63811  0.61122  Biso   1.000  N
  N14      1.0000 0.36184  0.46520  0.61135  Biso   1.000  N
  N15      1.0000 0.53497  0.89676  0.61117  Biso   1.000  N
  N16      1.0000 0.43675  0.30484  0.27773  Biso   1.000  N
  N17      1.0000 0.69518  0.13180  0.27802  Biso   1.000  N
  N18      1.0000 0.86843  0.56351  0.27788  Biso   1.000  N
  C1       1.0000 0.29400  0.20757  0.25758  Biso   1.000  C
  C2       1.0000 0.79259  0.08638  0.25743  Biso   1.000  C
  C3       1.0000 0.91367  0.70620  0.25753  Biso   1.000  C
  C4       1.0000 0.96065  0.54078  0.59102  Biso   1.000  C
  C5       1.0000 0.45937  0.41986  0.59082  Biso   1.000  C
  C6       1.0000 0.58021  0.03953  0.59091  Biso   1.000  C
  C7       1.0000 0.62717  0.87409  0.92443  Biso   1.000  C
  C8       1.0000 0.12608  0.75310  0.92429  Biso   1.000  C
  C9       1.0000 0.24693  0.37293  0.92433  Biso   1.000  C
  C10      1.0000 0.70607  0.79249  0.74242  Biso   1.000  C
  C11      1.0000 0.20742  0.91366  0.74264  Biso   1.000  C
  C12      1.0000 0.08639  0.29379  0.74251  Biso   1.000  C
  C13      1.0000 0.03940  0.45921  0.40906  Biso   1.000  C
  C14      1.0000 0.54068  0.58021  0.40916  Biso   1.000  C
  C15      1.0000 0.41980  0.96055  0.40912  Biso   1.000  C
  C16      1.0000 0.37283  0.12597  0.07557  Biso   1.000  C
  C17      1.0000 0.87398  0.24691  0.07573  Biso   1.000  C
  C18      1.0000 0.75311  0.62710  0.07571  Biso   1.000  C
  C19      1.0000 0.27684  0.15176  0.29136  Biso   1.000  C
  C20      1.0000 0.84836  0.12511  0.29113  Biso   1.000  C
  C21      1.0000 0.87488  0.72322  0.29126  Biso   1.000  C
  C22      1.0000 0.94345  0.48496  0.62485  Biso   1.000  C
  C23      1.0000 0.51516  0.45854  0.62458  Biso   1.000  C
  C24      1.0000 0.54147  0.05662  0.62469  Biso   1.000  C
  C25      1.0000 0.61004  0.81829  0.95824  Biso   1.000  C
  C26      1.0000 0.18185  0.79183  0.95804  Biso   1.000  C
  C27      1.0000 0.20816  0.38997  0.95812  Biso   1.000  C
  C28      1.0000 0.72319  0.84829  0.70867  Biso   1.000  C
  C29      1.0000 0.15165  0.87491  0.70896  Biso   1.000  C
  C30      1.0000 0.12518  0.27677  0.70876  Biso   1.000  C
  C31      1.0000 0.05660  0.51503  0.37526  Biso   1.000  C
  C32      1.0000 0.48489  0.54153  0.37540  Biso   1.000  C
  C33      1.0000 0.45854  0.94345  0.37534  Biso   1.000  C
  C34      1.0000 0.38998  0.18177  0.04174  Biso   1.000  C
  C35      1.0000 0.81820  0.20820  0.04199  Biso   1.000  C
  C36      1.0000 0.79189  0.61006  0.04196  Biso   1.000  C
  C37      1.0000 0.27748  0.13546  0.45320  Biso   1.000  C
  C38      1.0000 0.86464  0.14210  0.45295  Biso   1.000  C
  C39      1.0000 0.85787  0.72251  0.45308  Biso   1.000  C
  C40      1.0000 0.94410  0.46867  0.78670  Biso   1.000  C
  C41      1.0000 0.53144  0.47551  0.78642  Biso   1.000  C
  C42      1.0000 0.52449  0.05594  0.78654  Biso   1.000  C
  C43      1.0000 0.61070  0.80199  0.12009  Biso   1.000  C
  C44      1.0000 0.19812  0.80882  0.11988  Biso   1.000  C
  C45      1.0000 0.19117  0.38928  0.11997  Biso   1.000  C
  C46      1.0000 0.72253  0.86459  0.54684  Biso   1.000  C
  C47      1.0000 0.13538  0.85791  0.54714  Biso   1.000  C
  C48      1.0000 0.14218  0.27748  0.54692  Biso   1.000  C
  C49      1.0000 0.05596  0.53132  0.21341  Biso   1.000  C
  C50      1.0000 0.46860  0.52455  0.21356  Biso   1.000  C
  C51      1.0000 0.47551  0.94414  0.21348  Biso   1.000  C
  C52      1.0000 0.38933  0.19806  0.87989  Biso   1.000  C
  C53      1.0000 0.80191  0.19121  0.88016  Biso   1.000  C
  C54      1.0000 0.80888  0.61075  0.88012  Biso   1.000  C
  H55      1.0000 0.28951  0.16327  0.55422  Biso   1.000  H
  H56      1.0000 0.83685  0.12630  0.55399  Biso   1.000  H
  H57      1.0000 0.87371  0.71053  0.55409  Biso   1.000  H
  H58      1.0000 0.95615  0.49649  0.88769  Biso   1.000  H
  H59      1.0000 0.50363  0.45974  0.88743  Biso   1.000  H
  H60      1.0000 0.54030  0.04393  0.88752  Biso   1.000  H
  H61      1.0000 0.62272  0.82981  0.22110  Biso   1.000  H
  H62      1.0000 0.17033  0.79300  0.22091  Biso   1.000  H
  H63      1.0000 0.20702  0.37731  0.22097  Biso   1.000  H
  H64      1.0000 0.71051  0.83678  0.44581  Biso   1.000  H
  H65      1.0000 0.16317  0.87371  0.44610  Biso   1.000  H
  H66      1.0000 0.12634  0.28946  0.44592  Biso   1.000  H
  H67      1.0000 0.04391  0.50351  0.11241  Biso   1.000  H
  H68      1.0000 0.49641  0.54034  0.11255  Biso   1.000  H
  H69      1.0000 0.45970  0.95614  0.11250  Biso   1.000  H
  H70      1.0000 0.37730  0.17025  0.77889  Biso   1.000  H
  H71      1.0000 0.82971  0.20702  0.77912  Biso   1.000  H
  H72      1.0000 0.79304  0.62271  0.77910  Biso   1.000  H
  C55      1.0000 0.26250  0.08342  0.48420  Biso   1.000  C
  C56      1.0000 0.91666  0.17923  0.48394  Biso   1.000  C
  C57      1.0000 0.82068  0.73735  0.48412  Biso   1.000  C
  C58      1.0000 0.92911  0.41662  0.81774  Biso   1.000  C
  C59      1.0000 0.58347  0.51261  0.81745  Biso   1.000  C
  C60      1.0000 0.48733  0.07084  0.81761  Biso   1.000  C
  C61      1.0000 0.59576  0.74996  0.15109  Biso   1.000  C
  C62      1.0000 0.25013  0.84598  0.15087  Biso   1.000  C
  C63      1.0000 0.15397  0.40412  0.15101  Biso   1.000  C
  C64      1.0000 0.73748  0.91662  0.51585  Biso   1.000  C
  C65      1.0000 0.08337  0.82076  0.51615  Biso   1.000  C
  C66      1.0000 0.17937  0.26264  0.51586  Biso   1.000  C
  C67      1.0000 0.07095  0.58337  0.18238  Biso   1.000  C
  C68      1.0000 0.41658  0.48745  0.18253  Biso   1.000  C
  C69      1.0000 0.51266  0.92923  0.18241  Biso   1.000  C
  C70      1.0000 0.40428  0.25010  0.84888  Biso   1.000  C
  C71      1.0000 0.74990  0.15407  0.84918  Biso   1.000  C
  C72      1.0000 0.84608  0.59591  0.84911  Biso   1.000  C
  C73      1.0000 0.26061  0.06618  0.66012  Biso   1.000  C
  C74      1.0000 0.93388  0.19458  0.65988  Biso   1.000  C
  C75      1.0000 0.80530  0.73919  0.66008  Biso   1.000  C
  C76      1.0000 0.92726  0.39939  0.99365  Biso   1.000  C
  C77      1.0000 0.60069  0.52798  0.99338  Biso   1.000  C
  C78      1.0000 0.47194  0.07268  0.99354  Biso   1.000  C
  C79      1.0000 0.59388  0.73270  0.32698  Biso   1.000  C
  C80      1.0000 0.26737  0.86137  0.32677  Biso   1.000  C
  C81      1.0000 0.13856  0.40596  0.32692  Biso   1.000  C
  C82      1.0000 0.73936  0.93385  0.33993  Biso   1.000  C
  C83      1.0000 0.06616  0.80540  0.34021  Biso   1.000  C
  C84      1.0000 0.19475  0.26081  0.33991  Biso   1.000  C
  C85      1.0000 0.07281  0.60061  0.00647  Biso   1.000  C
  C86      1.0000 0.39935  0.47208  0.00660  Biso   1.000  C
  C87      1.0000 0.52806  0.92739  0.00647  Biso   1.000  C
  C88      1.0000 0.40617  0.26736  0.67299  Biso   1.000  C
  C89      1.0000 0.73265  0.13870  0.67327  Biso   1.000  C
  C90      1.0000 0.86149  0.59406  0.67320  Biso   1.000  C
  C91      1.0000 0.24789  0.04780  0.35324  Biso   1.000  C
  C92      1.0000 0.95226  0.20024  0.35299  Biso   1.000  C
  C93      1.0000 0.79962  0.75192  0.35322  Biso   1.000  C
  C94      1.0000 0.91446  0.38099  0.68681  Biso   1.000  C
  C95      1.0000 0.61907  0.53360  0.68652  Biso   1.000  C
  C96      1.0000 0.46630  0.08544  0.68671  Biso   1.000  C
  C97      1.0000 0.58117  0.71435  0.02012  Biso   1.000  C
  C98      1.0000 0.28572  0.86703  0.01990  Biso   1.000  C
  C99      1.0000 0.13290  0.41867  0.02009  Biso   1.000  C
  C100     1.0000 0.75208  0.95223  0.64681  Biso   1.000  C
  C101     1.0000 0.04777  0.79973  0.64710  Biso   1.000  C
  C102     1.0000 0.20044  0.24807  0.64676  Biso   1.000  C
  C103     1.0000 0.08560  0.61900  0.31331  Biso   1.000  C
  C104     1.0000 0.38097  0.46646  0.31346  Biso   1.000  C
  C105     1.0000 0.53370  0.91462  0.31330  Biso   1.000  C
  C106     1.0000 0.41889  0.28572  0.97983  Biso   1.000  C
  C107     1.0000 0.71431  0.13305  0.98014  Biso   1.000  C
  C108     1.0000 0.86715  0.58136  0.98004  Biso   1.000  C
  H73      1.0000 0.23824  0.00785  0.37692  Biso   1.000  H
  H74      1.0000 0.99218  0.23060  0.37665  Biso   1.000  H
  H75      1.0000 0.76922  0.76146  0.37689  Biso   1.000  H
  H76      1.0000 0.90482  0.34104  0.71051  Biso   1.000  H
  H77      1.0000 0.65900  0.56394  0.71020  Biso   1.000  H
  H78      1.0000 0.43592  0.09502  0.71041  Biso   1.000  H
  H79      1.0000 0.57157  0.67441  0.04379  Biso   1.000  H
  H80      1.0000 0.32563  0.89741  0.04355  Biso   1.000  H
  H81      1.0000 0.10249  0.42820  0.04376  Biso   1.000  H
  H82      1.0000 0.76170  0.99218  0.62315  Biso   1.000  H
  H83      1.0000 0.00786  0.76936  0.62345  Biso   1.000  H
  H84      1.0000 0.23084  0.23853  0.62306  Biso   1.000  H
  H85      1.0000 0.09525  0.65895  0.28963  Biso   1.000  H
  H86      1.0000 0.34104  0.43612  0.28978  Biso   1.000  H
  H87      1.0000 0.56407  0.90504  0.28961  Biso   1.000  H
  H88      1.0000 0.42851  0.32566  0.95616  Biso   1.000  H
  H89      1.0000 0.67439  0.10268  0.95650  Biso   1.000  H
  H90      1.0000 0.89756  0.57183  0.95639  Biso   1.000  H
  C109     1.0000 0.24547  0.06406  0.19239  Biso   1.000  C
  C110     1.0000 0.93603  0.18153  0.19215  Biso   1.000  C
  C111     1.0000 0.81835  0.75442  0.19237  Biso   1.000  C
  C112     1.0000 0.91203  0.39724  0.52595  Biso   1.000  C
  C113     1.0000 0.60285  0.51490  0.52566  Biso   1.000  C
  C114     1.0000 0.48501  0.08792  0.52585  Biso   1.000  C
  C115     1.0000 0.57871  0.73059  0.85927  Biso   1.000  C
  C116     1.0000 0.26950  0.84831  0.85905  Biso   1.000  C
  C117     1.0000 0.15162  0.42116  0.85924  Biso   1.000  C
  C118     1.0000 0.75452  0.93598  0.80766  Biso   1.000  C
  C119     1.0000 0.06400  0.81846  0.80794  Biso   1.000  C
  C120     1.0000 0.18171  0.24558  0.80761  Biso   1.000  C
  C121     1.0000 0.08803  0.60275  0.47417  Biso   1.000  C
  C122     1.0000 0.39720  0.48516  0.47432  Biso   1.000  C
  C123     1.0000 0.51498  0.91215  0.47416  Biso   1.000  C
  C124     1.0000 0.42134  0.26948  0.14069  Biso   1.000  C
  C125     1.0000 0.73053  0.15177  0.14099  Biso   1.000  C
  C126     1.0000 0.84842  0.57887  0.14088  Biso   1.000  C
  C127     1.0000 0.25960  0.11577  0.16126  Biso   1.000  C
  C128     1.0000 0.88435  0.14389  0.16102  Biso   1.000  C
  C129     1.0000 0.85605  0.74040  0.16119  Biso   1.000  C
  C130     1.0000 0.92618  0.44895  0.49478  Biso   1.000  C
  C131     1.0000 0.55116  0.47730  0.49450  Biso   1.000  C
  C132     1.0000 0.52266  0.07385  0.49465  Biso   1.000  C
  C133     1.0000 0.59281  0.78229  0.82815  Biso   1.000  C
  C134     1.0000 0.21784  0.81064  0.82793  Biso   1.000  C
  C135     1.0000 0.18932  0.40715  0.82805  Biso   1.000  C
  C136     1.0000 0.74042  0.88428  0.83877  Biso   1.000  C
  C137     1.0000 0.11566  0.85611  0.83906  Biso   1.000  C
  C138     1.0000 0.14402  0.25959  0.83881  Biso   1.000  C
  C139     1.0000 0.07387  0.55103  0.50533  Biso   1.000  C
  C140     1.0000 0.44888  0.52276  0.50548  Biso   1.000  C
  C141     1.0000 0.47734  0.92623  0.50538  Biso   1.000  C
  C142     1.0000 0.40722  0.21777  0.17183  Biso   1.000  C
  C143     1.0000 0.78221  0.18941  0.17211  Biso   1.000  C
  C144     1.0000 0.81072  0.59288  0.17204  Biso   1.000  C
  H91      1.0000 0.25788  0.12826  0.03614  Biso   1.000  H
  H92      1.0000 0.87188  0.12965  0.03591  Biso   1.000  H
  H93      1.0000 0.87030  0.74218  0.03607  Biso   1.000  H
  H94      1.0000 0.92447  0.46144  0.36965  Biso   1.000  H
  H95      1.0000 0.53869  0.46308  0.36937  Biso   1.000  H
  H96      1.0000 0.53689  0.07560  0.36950  Biso   1.000  H
  H97      1.0000 0.59108  0.79478  0.70303  Biso   1.000  H
  H98      1.0000 0.20537  0.79639  0.70281  Biso   1.000  H
  H99      1.0000 0.20356  0.40891  0.70293  Biso   1.000  H
  H100     1.0000 0.74215  0.87179  0.96389  Biso   1.000  H
  H101     1.0000 0.12813  0.87036  0.96418  Biso   1.000  H
  H102     1.0000 0.12977  0.25781  0.96394  Biso   1.000  H
  H103     1.0000 0.07558  0.53854  0.63047  Biso   1.000  H
  H104     1.0000 0.46135  0.53699  0.63062  Biso   1.000  H
  H105     1.0000 0.46311  0.92448  0.63052  Biso   1.000  H
  H106     1.0000 0.40895  0.20528  0.29695  Biso   1.000  H
  H107     1.0000 0.79468  0.20365  0.29722  Biso   1.000  H
  H108     1.0000 0.79647  0.59112  0.29716  Biso   1.000  H
