data_image0
_cell_length_a       11.3584
_cell_length_b       12.0043
_cell_length_c       12.8176
_cell_angle_alpha    85.6895
_cell_angle_beta     67.4243
_cell_angle_gamma    73.223

_symmetry_space_group_name_H-M    "P 1"
_symmetry_int_tables_number       1

loop_
  _symmetry_equiv_pos_as_xyz
  'x, y, z'

loop_
  _atom_site_label
  _atom_site_occupancy
  _atom_site_fract_x
  _atom_site_fract_y
  _atom_site_fract_z
  _atom_site_thermal_displace_type
  _atom_site_B_iso_or_equiv
  _atom_site_type_symbol
  Y1       1.0000 0.59976  0.55094  0.35802  Biso   1.000  Y
  Y2       1.0000 0.40043  0.44909  0.64197  Biso   1.000  Y
  Y3       1.0000 0.56273  0.84578  0.24381  Biso   1.000  Y
  Y4       1.0000 0.43747  0.15425  0.75618  Biso   1.000  Y
  Y5       1.0000 0.53842  0.24789  0.38355  Biso   1.000  Y
  Y6       1.0000 0.46177  0.75215  0.61643  Biso   1.000  Y
  O1       1.0000 0.39888  0.61582  0.32733  Biso   1.000  O
  O2       1.0000 0.60131  0.38423  0.67268  Biso   1.000  O
  O3       1.0000 0.38683  0.78764  0.24023  Biso   1.000  O
  O4       1.0000 0.61336  0.21240  0.75978  Biso   1.000  O
  O5       1.0000 0.77127  0.62650  0.35935  Biso   1.000  O
  O6       1.0000 0.22892  0.37353  0.64067  Biso   1.000  O
  O7       1.0000 0.74880  0.80241  0.27929  Biso   1.000  O
  O8       1.0000 0.25141  0.19758  0.72068  Biso   1.000  O
  O9       1.0000 0.65863  0.63904  0.19261  Biso   1.000  O
  O10      1.0000 0.34156  0.36098  0.80738  Biso   1.000  O
  O11      1.0000 0.70917  0.75875  0.05370  Biso   1.000  O
  O12      1.0000 0.29101  0.24128  0.94628  Biso   1.000  O
  O13      1.0000 0.73723  0.21454  0.40490  Biso   1.000  O
  O14      1.0000 0.26295  0.78549  0.59509  Biso   1.000  O
  O15      1.0000 0.76807  0.39268  0.36935  Biso   1.000  O
  O16      1.0000 0.23212  0.60735  0.63064  Biso   1.000  O
  O17      1.0000 0.39926  0.98982  0.35485  Biso   1.000  O
  O18      1.0000 0.60095  0.01022  0.64515  Biso   1.000  O
  O19      1.0000 0.37930  0.16156  0.42710  Biso   1.000  O
  O20      1.0000 0.62087  0.83851  0.57288  Biso   1.000  O
  O21      1.0000 0.61965  0.39126  0.23104  Biso   1.000  O
  O22      1.0000 0.38054  0.60880  0.76895  Biso   1.000  O
  O23      1.0000 0.43762  0.33762  0.26003  Biso   1.000  O
  O24      1.0000 0.56259  0.66240  0.73992  Biso   1.000  O
  O25      1.0000 0.68087  0.12495  0.23560  Biso   1.000  O
  O26      1.0000 0.31931  0.87502  0.76443  Biso   1.000  O
  O27      1.0000 0.65294  0.98631  0.14665  Biso   1.000  O
  O28      1.0000 0.34730  0.01369  0.85332  Biso   1.000  O
  C1       1.0000 0.33968  0.70303  0.28428  Biso   1.000  C
  C2       1.0000 0.66051  0.29701  0.71572  Biso   1.000  C
  C3       1.0000 0.20414  0.70673  0.29131  Biso   1.000  C
  C4       1.0000 0.79606  0.29330  0.70868  Biso   1.000  C
  C5       1.0000 0.14322  0.62287  0.35243  Biso   1.000  C
  C6       1.0000 0.85699  0.37715  0.64756  Biso   1.000  C
  H1       1.0000 0.19607  0.55532  0.39280  Biso   1.000  H
  H2       1.0000 0.80414  0.44470  0.60718  Biso   1.000  H
  C7       1.0000 0.01585  0.62696  0.36243  Biso   1.000  C
  C8       1.0000 0.98437  0.37305  0.63755  Biso   1.000  C
  H3       1.0000 0.96670  0.56383  0.41102  Biso   1.000  H
  H4       1.0000 0.03352  0.43618  0.58895  Biso   1.000  H
  C9       1.0000 0.94709  0.71439  0.31098  Biso   1.000  C
  C10      1.0000 0.05312  0.28562  0.68900  Biso   1.000  C
  C11      1.0000 0.00738  0.79875  0.25023  Biso   1.000  C
  C12      1.0000 0.99283  0.20126  0.74975  Biso   1.000  C
  H5       1.0000 0.95379  0.86619  0.21024  Biso   1.000  H
  H6       1.0000 0.04642  0.13382  0.78974  Biso   1.000  H
  C13      1.0000 0.13506  0.79501  0.24048  Biso   1.000  C
  C14      1.0000 0.86515  0.20501  0.75951  Biso   1.000  C
  H7       1.0000 0.18267  0.85981  0.19336  Biso   1.000  H
  H8       1.0000 0.81753  0.14022  0.80663  Biso   1.000  H
  C15      1.0000 0.81229  0.71426  0.31840  Biso   1.000  C
  C16      1.0000 0.18792  0.28575  0.68159  Biso   1.000  C
  C17      1.0000 0.74075  0.66194  0.09621  Biso   1.000  C
  C18      1.0000 0.25943  0.33809  0.90378  Biso   1.000  C
  C19      1.0000 0.87280  0.57647  0.04539  Biso   1.000  C
  C20      1.0000 0.12738  0.42356  0.95460  Biso   1.000  C
  C21      1.0000 0.91064  0.47784  0.10396  Biso   1.000  C
  C22      1.0000 0.08955  0.52219  0.89603  Biso   1.000  C
  H9       1.0000 0.84234  0.45932  0.18481  Biso   1.000  H
  H10      1.0000 0.15784  0.54071  0.81517  Biso   1.000  H
  C23      1.0000 0.96276  0.59851  0.94089  Biso   1.000  C
  C24      1.0000 0.03742  0.40152  0.05910  Biso   1.000  C
  H11      1.0000 0.93196  0.67511  0.89631  Biso   1.000  H
  H12      1.0000 0.06823  0.32492  0.10367  Biso   1.000  H
  C25      1.0000 0.80988  0.28402  0.38223  Biso   1.000  C
  C26      1.0000 0.19031  0.71601  0.61776  Biso   1.000  C
  C27      1.0000 0.94972  0.23404  0.37357  Biso   1.000  C
  C28      1.0000 0.05047  0.76599  0.62642  Biso   1.000  C
  C29      1.0000 0.99955  0.11376  0.38300  Biso   1.000  C
  C30      1.0000 0.00064  0.88627  0.61699  Biso   1.000  C
  H13      1.0000 0.93730  0.05724  0.39078  Biso   1.000  H
  H14      1.0000 0.06287  0.94278  0.60922  Biso   1.000  H
  C31      1.0000 0.12705  0.06846  0.38291  Biso   1.000  C
  C32      1.0000 0.87313  0.93157  0.61709  Biso   1.000  C
  H15      1.0000 0.16751  0.97545  0.38912  Biso   1.000  H
  H16      1.0000 0.83266  0.02459  0.61090  Biso   1.000  H
  C33      1.0000 0.20369  0.14354  0.37753  Biso   1.000  C
  C34      1.0000 0.79649  0.85649  0.62245  Biso   1.000  C
  C35      1.0000 0.15565  0.26321  0.36438  Biso   1.000  C
  C36      1.0000 0.84454  0.73682  0.63559  Biso   1.000  C
  H17      1.0000 0.21800  0.31956  0.35662  Biso   1.000  H
  H18      1.0000 0.78219  0.68047  0.64333  Biso   1.000  H
  C37      1.0000 0.03013  0.30763  0.36013  Biso   1.000  C
  C38      1.0000 0.97005  0.69239  0.63984  Biso   1.000  C
  H19      1.0000 0.99064  0.39979  0.34934  Biso   1.000  H
  H20      1.0000 0.00954  0.60023  0.65062  Biso   1.000  H
  C39      1.0000 0.33613  0.09551  0.38621  Biso   1.000  C
  C40      1.0000 0.66405  0.90453  0.61378  Biso   1.000  C
  C41      1.0000 0.52379  0.38939  0.20070  Biso   1.000  C
  C42      1.0000 0.47640  0.61067  0.79927  Biso   1.000  C
  C43      1.0000 0.51252  0.44594  0.09684  Biso   1.000  C
  C44      1.0000 0.48765  0.55414  0.90315  Biso   1.000  C
  C45      1.0000 0.62166  0.47447  0.01366  Biso   1.000  C
  C46      1.0000 0.37851  0.52562  0.98634  Biso   1.000  C
  H21      1.0000 0.71551  0.45224  0.02519  Biso   1.000  H
  H22      1.0000 0.28466  0.54785  0.97480  Biso   1.000  H
  C47      1.0000 0.39098  0.47107  0.08270  Biso   1.000  C
  C48      1.0000 0.60919  0.52901  0.91729  Biso   1.000  C
  H23      1.0000 0.30761  0.44816  0.14811  Biso   1.000  H
  H24      1.0000 0.69256  0.55192  0.85188  Biso   1.000  H
  C49      1.0000 0.72354  0.04704  0.15717  Biso   1.000  C
  C50      1.0000 0.27666  0.95297  0.84283  Biso   1.000  C
  C51      1.0000 0.86548  0.02446  0.07443  Biso   1.000  C
  C52      1.0000 0.13471  0.97559  0.92557  Biso   1.000  C
  C53      1.0000 0.94658  0.08994  0.08252  Biso   1.000  C
  C54      1.0000 0.05361  0.91012  0.91747  Biso   1.000  C
  H25      1.0000 0.90355  0.15962  0.14723  Biso   1.000  H
  H26      1.0000 0.09663  0.84045  0.85275  Biso   1.000  H
  C55      1.0000 0.92050  0.93423  0.99087  Biso   1.000  C
  C56      1.0000 0.07969  0.06582  0.00912  Biso   1.000  C
  H27      1.0000 0.85774  0.88310  0.98555  Biso   1.000  H
  H28      1.0000 0.14245  0.11696  0.01444  Biso   1.000  H
  O29      1.0000 0.49919  0.75409  0.41891  Biso   1.000  O
  O30      1.0000 0.50100  0.24595  0.58108  Biso   1.000  O
  H29      1.0000 0.40405  0.77195  0.43532  Biso   1.000  H
  H30      1.0000 0.59615  0.22810  0.56465  Biso   1.000  H
  O31      1.0000 0.44847  0.43741  0.45282  Biso   1.000  O
  O32      1.0000 0.55170  0.56263  0.54718  Biso   1.000  O
  H31      1.0000 0.37881  0.48158  0.42641  Biso   1.000  H
  H32      1.0000 0.62137  0.51848  0.57358  Biso   1.000  H
