data_image0
_cell_length_a       38.0874
_cell_length_b       22.9652
_cell_length_c       7.08204
_cell_angle_alpha    89.7942
_cell_angle_beta     89.9584
_cell_angle_gamma    90.0064

_symmetry_space_group_name_H-M    "P 1"
_symmetry_int_tables_number       1

loop_
  _symmetry_equiv_pos_as_xyz
  'x, y, z'

loop_
  _atom_site_label
  _atom_site_occupancy
  _atom_site_fract_x
  _atom_site_fract_y
  _atom_site_fract_z
  _atom_site_thermal_displace_type
  _atom_site_B_iso_or_equiv
  _atom_site_type_symbol
  In1      1.0000 0.25281  0.50007  0.50027  Biso   1.000  In
  In2      1.0000 0.74761  0.00004  0.99983  Biso   1.000  In
  In3      1.0000 0.75301  0.00003  0.50023  Biso   1.000  In
  In4      1.0000 0.24733  0.50001  0.99972  Biso   1.000  In
  In5      1.0000 0.74720  0.49993  0.49973  Biso   1.000  In
  In6      1.0000 0.25239  0.99996  0.00017  Biso   1.000  In
  In7      1.0000 0.24699  0.99997  0.49977  Biso   1.000  In
  In8      1.0000 0.75267  0.49999  0.00028  Biso   1.000  In
  In9      1.0000 0.00001  0.24275  0.03711  Biso   1.000  In
  In10     1.0000 0.00000  0.25407  0.53771  Biso   1.000  In
  In11     1.0000 1.00000  0.74593  0.46229  Biso   1.000  In
  In12     1.0000 0.99999  0.75725  0.96289  Biso   1.000  In
  In13     1.0000 0.49933  0.74290  0.03785  Biso   1.000  In
  In14     1.0000 0.49928  0.75424  0.53810  Biso   1.000  In
  In15     1.0000 0.50072  0.24576  0.46186  Biso   1.000  In
  In16     1.0000 0.50067  0.25709  0.96220  Biso   1.000  In
  O1       1.0000 0.25047  0.44936  0.75069  Biso   1.000  O
  O2       1.0000 0.75128  0.05041  0.24965  Biso   1.000  O
  O3       1.0000 0.75124  0.94941  0.75042  Biso   1.000  O
  O4       1.0000 0.25042  0.55035  0.24920  Biso   1.000  O
  O5       1.0000 0.74953  0.55064  0.24931  Biso   1.000  O
  O6       1.0000 0.24872  0.94959  0.75035  Biso   1.000  O
  O7       1.0000 0.24876  0.05059  0.24958  Biso   1.000  O
  O8       1.0000 0.74958  0.44965  0.75080  Biso   1.000  O
  H1       1.0000 0.23374  0.41729  0.74901  Biso   1.000  H
  H2       1.0000 0.73509  0.08324  0.25072  Biso   1.000  H
  H3       1.0000 0.73506  0.91657  0.74941  Biso   1.000  H
  H4       1.0000 0.23391  0.58273  0.25088  Biso   1.000  H
  H5       1.0000 0.76626  0.58271  0.25099  Biso   1.000  H
  H6       1.0000 0.26490  0.91675  0.74928  Biso   1.000  H
  H7       1.0000 0.26494  0.08344  0.25058  Biso   1.000  H
  H8       1.0000 0.76609  0.41727  0.74912  Biso   1.000  H
  O9       1.0000 0.99999  0.29729  0.79684  Biso   1.000  O
  O10      1.0000 1.00000  0.19996  0.29826  Biso   1.000  O
  O11      1.0000 0.00000  0.80004  0.70174  Biso   1.000  O
  O12      1.0000 0.00001  0.70271  0.20316  Biso   1.000  O
  O13      1.0000 0.49703  0.79877  0.79772  Biso   1.000  O
  O14      1.0000 0.49765  0.69860  0.29898  Biso   1.000  O
  O15      1.0000 0.50237  0.30135  0.70103  Biso   1.000  O
  O16      1.0000 0.50295  0.20118  0.20228  Biso   1.000  O
  H9       1.0000 0.00011  0.33939  0.80828  Biso   1.000  H
  H10      1.0000 0.00001  0.15784  0.31030  Biso   1.000  H
  H11      1.0000 0.99999  0.84216  0.68970  Biso   1.000  H
  H12      1.0000 0.99989  0.66061  0.19172  Biso   1.000  H
  H13      1.0000 0.51028  0.83478  0.80681  Biso   1.000  H
  H14      1.0000 0.51161  0.66331  0.30880  Biso   1.000  H
  H15      1.0000 0.48851  0.33675  0.69117  Biso   1.000  H
  H16      1.0000 0.48956  0.16532  0.19323  Biso   1.000  H
  O17      1.0000 0.20779  0.44282  0.40713  Biso   1.000  O
  O18      1.0000 0.79086  0.05853  0.91176  Biso   1.000  O
  O19      1.0000 0.79075  0.94120  0.08835  Biso   1.000  O
  O20      1.0000 0.20770  0.55704  0.59281  Biso   1.000  O
  O21      1.0000 0.70824  0.94254  0.40410  Biso   1.000  O
  O22      1.0000 0.29096  0.55769  0.91074  Biso   1.000  O
  O23      1.0000 0.29133  0.44271  0.08863  Biso   1.000  O
  O24      1.0000 0.70836  0.05744  0.59648  Biso   1.000  O
  O25      1.0000 0.79221  0.55718  0.59287  Biso   1.000  O
  O26      1.0000 0.20914  0.94147  0.08824  Biso   1.000  O
  O27      1.0000 0.20925  0.05880  0.91165  Biso   1.000  O
  O28      1.0000 0.79230  0.44296  0.40719  Biso   1.000  O
  O29      1.0000 0.29176  0.05746  0.59590  Biso   1.000  O
  O30      1.0000 0.70904  0.44231  0.08926  Biso   1.000  O
  O31      1.0000 0.70867  0.55728  0.91137  Biso   1.000  O
  O32      1.0000 0.29164  0.94256  0.40352  Biso   1.000  O
  O33      1.0000 0.20546  0.43979  0.08663  Biso   1.000  O
  O34      1.0000 0.79478  0.05771  0.59189  Biso   1.000  O
  O35      1.0000 0.79472  0.94230  0.40814  Biso   1.000  O
  O36      1.0000 0.20533  0.56002  0.91331  Biso   1.000  O
  O37      1.0000 0.70548  0.93975  0.08348  Biso   1.000  O
  O38      1.0000 0.29467  0.55769  0.59082  Biso   1.000  O
  O39      1.0000 0.29465  0.44225  0.40869  Biso   1.000  O
  O40      1.0000 0.70550  0.06026  0.91711  Biso   1.000  O
  O41      1.0000 0.79454  0.56021  0.91337  Biso   1.000  O
  O42      1.0000 0.20522  0.94229  0.40812  Biso   1.000  O
  O43      1.0000 0.20528  0.05770  0.59186  Biso   1.000  O
  O44      1.0000 0.79467  0.43998  0.08669  Biso   1.000  O
  O45      1.0000 0.29451  0.06025  0.91651  Biso   1.000  O
  O46      1.0000 0.70533  0.44231  0.40917  Biso   1.000  O
  O47      1.0000 0.70535  0.55774  0.59132  Biso   1.000  O
  O48      1.0000 0.29450  0.93974  0.08289  Biso   1.000  O
  O49      1.0000 0.04172  0.30507  0.12749  Biso   1.000  O
  O50      1.0000 0.95821  0.19253  0.63181  Biso   1.000  O
  O51      1.0000 0.95816  0.80748  0.36821  Biso   1.000  O
  O52      1.0000 0.04170  0.69496  0.87260  Biso   1.000  O
  O53      1.0000 0.54172  0.80513  0.12856  Biso   1.000  O
  O54      1.0000 0.45795  0.69294  0.63312  Biso   1.000  O
  O55      1.0000 0.45821  0.30732  0.36838  Biso   1.000  O
  O56      1.0000 0.54190  0.19518  0.86927  Biso   1.000  O
  O57      1.0000 0.95828  0.69493  0.87251  Biso   1.000  O
  O58      1.0000 0.04179  0.80747  0.36819  Biso   1.000  O
  O59      1.0000 0.04184  0.19252  0.63179  Biso   1.000  O
  O60      1.0000 0.95830  0.30504  0.12740  Biso   1.000  O
  O61      1.0000 0.45828  0.19486  0.87146  Biso   1.000  O
  O62      1.0000 0.54205  0.30706  0.36688  Biso   1.000  O
  O63      1.0000 0.54179  0.69268  0.63162  Biso   1.000  O
  O64      1.0000 0.45809  0.80483  0.13073  Biso   1.000  O
  O65      1.0000 0.04329  0.30994  0.44754  Biso   1.000  O
  O66      1.0000 0.95631  0.18764  0.95189  Biso   1.000  O
  O67      1.0000 0.95629  0.81233  0.04812  Biso   1.000  O
  O68      1.0000 0.04330  0.69007  0.55255  Biso   1.000  O
  O69      1.0000 0.54334  0.80986  0.44897  Biso   1.000  O
  O70      1.0000 0.45592  0.68765  0.95308  Biso   1.000  O
  O71      1.0000 0.45666  0.31252  0.04797  Biso   1.000  O
  O72      1.0000 0.54429  0.19058  0.54937  Biso   1.000  O
  O73      1.0000 0.95671  0.69006  0.55246  Biso   1.000  O
  O74      1.0000 0.04369  0.81236  0.04811  Biso   1.000  O
  O75      1.0000 0.04371  0.18767  0.95188  Biso   1.000  O
  O76      1.0000 0.95670  0.30993  0.44745  Biso   1.000  O
  O77      1.0000 0.45666  0.19013  0.55105  Biso   1.000  O
  O78      1.0000 0.54408  0.31236  0.04693  Biso   1.000  O
  O79      1.0000 0.54333  0.68747  0.95203  Biso   1.000  O
  O80      1.0000 0.45571  0.80942  0.45062  Biso   1.000  O
  O81      1.0000 0.15681  0.40251  0.60669  Biso   1.000  O
  O82      1.0000 0.84104  0.10242  0.11362  Biso   1.000  O
  O83      1.0000 0.84109  0.89755  0.88644  Biso   1.000  O
  O84      1.0000 0.15686  0.59748  0.39321  Biso   1.000  O
  O85      1.0000 0.65742  0.90228  0.60492  Biso   1.000  O
  O86      1.0000 0.34216  0.59763  0.11322  Biso   1.000  O
  O87      1.0000 0.34240  0.40235  0.88699  Biso   1.000  O
  O88      1.0000 0.65758  0.09762  0.39501  Biso   1.000  O
  O89      1.0000 0.84319  0.59749  0.39331  Biso   1.000  O
  O90      1.0000 0.15896  0.89758  0.88638  Biso   1.000  O
  O91      1.0000 0.15891  0.10245  0.11356  Biso   1.000  O
  O92      1.0000 0.84314  0.40252  0.60679  Biso   1.000  O
  O93      1.0000 0.34257  0.09772  0.39508  Biso   1.000  O
  O94      1.0000 0.65784  0.40237  0.88677  Biso   1.000  O
  O95      1.0000 0.65760  0.59765  0.11301  Biso   1.000  O
  O96      1.0000 0.34241  0.90238  0.60499  Biso   1.000  O
  H17      1.0000 0.17903  0.42254  0.57048  Biso   1.000  H
  H18      1.0000 0.81800  0.08436  0.08432  Biso   1.000  H
  H19      1.0000 0.81802  0.91560  0.91579  Biso   1.000  H
  H20      1.0000 0.17906  0.57743  0.42934  Biso   1.000  H
  H21      1.0000 0.67982  0.92174  0.56811  Biso   1.000  H
  H22      1.0000 0.31878  0.58090  0.08338  Biso   1.000  H
  H23      1.0000 0.31907  0.41945  0.91706  Biso   1.000  H
  H24      1.0000 0.67999  0.07834  0.43159  Biso   1.000  H
  H25      1.0000 0.82097  0.57746  0.42951  Biso   1.000  H
  H26      1.0000 0.18200  0.91564  0.91568  Biso   1.000  H
  H27      1.0000 0.18198  0.08440  0.08421  Biso   1.000  H
  H28      1.0000 0.82094  0.42257  0.57066  Biso   1.000  H
  H29      1.0000 0.32018  0.07825  0.43190  Biso   1.000  H
  H30      1.0000 0.68123  0.41910  0.91662  Biso   1.000  H
  H31      1.0000 0.68093  0.58054  0.08295  Biso   1.000  H
  H32      1.0000 0.32000  0.92166  0.56841  Biso   1.000  H
  O97      1.0000 0.09208  0.34750  0.92692  Biso   1.000  O
  O98      1.0000 0.90719  0.15237  0.43137  Biso   1.000  O
  O99      1.0000 0.90708  0.84772  0.56866  Biso   1.000  O
  O100     1.0000 0.09197  0.65253  0.07313  Biso   1.000  O
  O101     1.0000 0.59184  0.84735  0.92793  Biso   1.000  O
  O102     1.0000 0.40727  0.65157  0.43116  Biso   1.000  O
  O103     1.0000 0.40727  0.34769  0.56790  Biso   1.000  O
  O104     1.0000 0.59192  0.15240  0.07295  Biso   1.000  O
  O105     1.0000 0.90792  0.65250  0.07308  Biso   1.000  O
  O106     1.0000 0.09281  0.84763  0.56864  Biso   1.000  O
  O107     1.0000 0.09292  0.15228  0.43134  Biso   1.000  O
  O108     1.0000 0.90803  0.34747  0.92687  Biso   1.000  O
  O109     1.0000 0.40816  0.15266  0.07206  Biso   1.000  O
  O110     1.0000 0.59273  0.34842  0.56883  Biso   1.000  O
  O111     1.0000 0.59273  0.65231  0.43211  Biso   1.000  O
  O112     1.0000 0.40808  0.84759  0.92707  Biso   1.000  O
  H33      1.0000 0.06957  0.32776  0.95934  Biso   1.000  H
  H34      1.0000 0.92999  0.17095  0.46324  Biso   1.000  H
  H35      1.0000 0.92989  0.82911  0.53674  Biso   1.000  H
  H36      1.0000 0.06948  0.67228  0.04077  Biso   1.000  H
  H37      1.0000 0.56971  0.82690  0.96359  Biso   1.000  H
  H38      1.0000 0.43024  0.66975  0.46149  Biso   1.000  H
  H39      1.0000 0.42953  0.32778  0.53299  Biso   1.000  H
  H40      1.0000 0.56911  0.17122  0.04171  Biso   1.000  H
  H41      1.0000 0.93043  0.67224  0.04066  Biso   1.000  H
  H42      1.0000 0.07001  0.82905  0.53676  Biso   1.000  H
  H43      1.0000 0.07011  0.17089  0.46326  Biso   1.000  H
  H44      1.0000 0.93052  0.32772  0.95923  Biso   1.000  H
  H45      1.0000 0.43028  0.17313  0.03633  Biso   1.000  H
  H46      1.0000 0.56976  0.33023  0.53849  Biso   1.000  H
  H47      1.0000 0.57048  0.67224  0.46706  Biso   1.000  H
  H48      1.0000 0.43088  0.82876  0.95833  Biso   1.000  H
  C1       1.0000 0.19240  0.42989  0.24944  Biso   1.000  C
  C2       1.0000 0.80679  0.07002  0.75469  Biso   1.000  C
  C3       1.0000 0.80672  0.92989  0.24521  Biso   1.000  C
  C4       1.0000 0.19231  0.57000  0.75066  Biso   1.000  C
  C5       1.0000 0.69269  0.92969  0.24672  Biso   1.000  C
  C6       1.0000 0.30694  0.56923  0.75379  Biso   1.000  C
  C7       1.0000 0.30707  0.43101  0.24582  Biso   1.000  C
  C8       1.0000 0.69273  0.07040  0.75385  Biso   1.000  C
  C9       1.0000 0.80760  0.57011  0.75056  Biso   1.000  C
  C10      1.0000 0.19321  0.92998  0.24532  Biso   1.000  C
  C11      1.0000 0.19328  0.07011  0.75479  Biso   1.000  C
  C12      1.0000 0.80769  0.43000  0.24934  Biso   1.000  C
  C13      1.0000 0.30731  0.07030  0.75328  Biso   1.000  C
  C14      1.0000 0.69306  0.43078  0.24620  Biso   1.000  C
  C15      1.0000 0.69293  0.56899  0.75418  Biso   1.000  C
  C16      1.0000 0.30727  0.92960  0.24615  Biso   1.000  C
  C17      1.0000 0.05665  0.31893  0.28484  Biso   1.000  C
  C18      1.0000 0.94286  0.17930  0.78923  Biso   1.000  C
  C19      1.0000 0.94283  0.82070  0.21092  Biso   1.000  C
  C20      1.0000 0.05664  0.68109  0.71512  Biso   1.000  C
  C21      1.0000 0.55671  0.81900  0.28621  Biso   1.000  C
  C22      1.0000 0.44276  0.67895  0.78999  Biso   1.000  C
  C23      1.0000 0.44315  0.32125  0.21060  Biso   1.000  C
  C24      1.0000 0.55716  0.18138  0.71286  Biso   1.000  C
  C25      1.0000 0.94335  0.68107  0.71516  Biso   1.000  C
  C26      1.0000 0.05714  0.82070  0.21077  Biso   1.000  C
  C27      1.0000 0.05717  0.17930  0.78908  Biso   1.000  C
  C28      1.0000 0.94336  0.31891  0.28488  Biso   1.000  C
  C29      1.0000 0.44329  0.18099  0.71380  Biso   1.000  C
  C30      1.0000 0.55724  0.32105  0.21001  Biso   1.000  C
  C31      1.0000 0.55685  0.67874  0.78940  Biso   1.000  C
  C32      1.0000 0.44284  0.81863  0.28714  Biso   1.000  C
  C33      1.0000 0.15764  0.40147  0.26052  Biso   1.000  C
  C34      1.0000 0.84114  0.09965  0.76644  Biso   1.000  C
  C35      1.0000 0.84109  0.90029  0.23356  Biso   1.000  C
  C36      1.0000 0.15759  0.59851  0.73944  Biso   1.000  C
  C37      1.0000 0.65792  0.90125  0.25890  Biso   1.000  C
  C38      1.0000 0.34152  0.59798  0.76587  Biso   1.000  C
  C39      1.0000 0.34168  0.40221  0.23407  Biso   1.000  C
  C40      1.0000 0.65804  0.09887  0.74138  Biso   1.000  C
  C41      1.0000 0.84236  0.59853  0.73948  Biso   1.000  C
  C42      1.0000 0.15886  0.90035  0.23356  Biso   1.000  C
  C43      1.0000 0.15891  0.09971  0.76644  Biso   1.000  C
  C44      1.0000 0.84241  0.40149  0.26056  Biso   1.000  C
  C45      1.0000 0.34208  0.09874  0.74110  Biso   1.000  C
  C46      1.0000 0.65848  0.40203  0.23413  Biso   1.000  C
  C47      1.0000 0.65832  0.59779  0.76593  Biso   1.000  C
  C48      1.0000 0.34196  0.90113  0.25863  Biso   1.000  C
  C49      1.0000 0.14153  0.38894  0.43837  Biso   1.000  C
  C50      1.0000 0.85673  0.11329  0.94437  Biso   1.000  C
  C51      1.0000 0.85674  0.88668  0.05562  Biso   1.000  C
  C52      1.0000 0.14154  0.61105  0.56160  Biso   1.000  C
  C53      1.0000 0.64196  0.88877  0.43716  Biso   1.000  C
  C54      1.0000 0.35748  0.61012  0.94404  Biso   1.000  C
  C55      1.0000 0.35766  0.38988  0.05598  Biso   1.000  C
  C56      1.0000 0.64212  0.11120  0.56302  Biso   1.000  C
  C57      1.0000 0.85847  0.61106  0.56163  Biso   1.000  C
  C58      1.0000 0.14327  0.88671  0.05563  Biso   1.000  C
  C59      1.0000 0.14326  0.11332  0.94438  Biso   1.000  C
  C60      1.0000 0.85846  0.38895  0.43840  Biso   1.000  C
  C61      1.0000 0.35804  0.11122  0.56284  Biso   1.000  C
  C62      1.0000 0.64252  0.38989  0.05596  Biso   1.000  C
  C63      1.0000 0.64234  0.61011  0.94402  Biso   1.000  C
  C64      1.0000 0.35788  0.88880  0.43698  Biso   1.000  C
  C65      1.0000 0.10869  0.36211  0.44175  Biso   1.000  C
  C66      1.0000 0.88997  0.13890  0.94677  Biso   1.000  C
  C67      1.0000 0.88999  0.86109  0.05334  Biso   1.000  C
  C68      1.0000 0.10871  0.63789  0.55820  Biso   1.000  C
  C69      1.0000 0.60908  0.86204  0.44184  Biso   1.000  C
  C70      1.0000 0.39062  0.63599  0.94663  Biso   1.000  C
  C71      1.0000 0.39078  0.36384  0.05328  Biso   1.000  C
  C72      1.0000 0.60927  0.13790  0.55840  Biso   1.000  C
  C73      1.0000 0.89131  0.63789  0.55825  Biso   1.000  C
  C74      1.0000 0.11003  0.86110  0.05323  Biso   1.000  C
  C75      1.0000 0.11001  0.13891  0.94666  Biso   1.000  C
  C76      1.0000 0.89129  0.36211  0.44180  Biso   1.000  C
  C77      1.0000 0.39092  0.13796  0.55815  Biso   1.000  C
  C78      1.0000 0.60938  0.36401  0.05337  Biso   1.000  C
  C79      1.0000 0.60922  0.63616  0.94672  Biso   1.000  C
  C80      1.0000 0.39073  0.86210  0.44161  Biso   1.000  C
  H49      1.0000 0.09673  0.35243  0.57850  Biso   1.000  H
  H50      1.0000 0.90184  0.14875  0.08328  Biso   1.000  H
  H51      1.0000 0.90188  0.85125  0.91677  Biso   1.000  H
  H52      1.0000 0.09678  0.64757  0.42151  Biso   1.000  H
  H53      1.0000 0.59735  0.85242  0.57923  Biso   1.000  H
  H54      1.0000 0.40266  0.64513  0.08322  Biso   1.000  H
  H55      1.0000 0.40268  0.35465  0.91633  Biso   1.000  H
  H56      1.0000 0.59745  0.14750  0.42128  Biso   1.000  H
  H57      1.0000 0.90327  0.64757  0.42150  Biso   1.000  H
  H58      1.0000 0.09816  0.85125  0.91672  Biso   1.000  H
  H59      1.0000 0.09812  0.14875  0.08324  Biso   1.000  H
  H60      1.0000 0.90322  0.35243  0.57849  Biso   1.000  H
  H61      1.0000 0.40265  0.14758  0.42076  Biso   1.000  H
  H62      1.0000 0.59734  0.35487  0.91679  Biso   1.000  H
  H63      1.0000 0.59732  0.64535  0.08367  Biso   1.000  H
  H64      1.0000 0.40255  0.85250  0.57874  Biso   1.000  H
  C81      1.0000 0.09128  0.34769  0.27366  Biso   1.000  C
  C82      1.0000 0.90782  0.15212  0.77836  Biso   1.000  C
  C83      1.0000 0.90778  0.84790  0.22172  Biso   1.000  C
  C84      1.0000 0.09127  0.65234  0.72635  Biso   1.000  C
  C85      1.0000 0.59142  0.84765  0.27446  Biso   1.000  C
  C86      1.0000 0.40811  0.65053  0.77833  Biso   1.000  C
  C87      1.0000 0.40831  0.34933  0.22133  Biso   1.000  C
  C88      1.0000 0.59166  0.15241  0.72594  Biso   1.000  C
  C89      1.0000 0.90872  0.65231  0.72634  Biso   1.000  C
  C90      1.0000 0.09218  0.84788  0.22164  Biso   1.000  C
  C91      1.0000 0.09222  0.15210  0.77828  Biso   1.000  C
  C92      1.0000 0.90873  0.34766  0.27365  Biso   1.000  C
  C93      1.0000 0.40857  0.15235  0.72554  Biso   1.000  C
  C94      1.0000 0.59189  0.34948  0.22167  Biso   1.000  C
  C95      1.0000 0.59169  0.65067  0.77868  Biso   1.000  C
  C96      1.0000 0.40833  0.84759  0.27407  Biso   1.000  C
  C97      1.0000 0.10728  0.36037  0.09559  Biso   1.000  C
  C98      1.0000 0.89181  0.13981  0.60045  Biso   1.000  C
  C99      1.0000 0.89173  0.86023  0.39964  Biso   1.000  C
  C100     1.0000 0.10722  0.63967  0.90440  Biso   1.000  C
  C101     1.0000 0.60734  0.86031  0.09601  Biso   1.000  C
  C102     1.0000 0.39207  0.63867  0.60020  Biso   1.000  C
  C103     1.0000 0.39207  0.36126  0.39914  Biso   1.000  C
  C104     1.0000 0.60737  0.13983  0.90470  Biso   1.000  C
  C105     1.0000 0.89272  0.63963  0.90441  Biso   1.000  C
  C106     1.0000 0.10819  0.86019  0.39955  Biso   1.000  C
  C107     1.0000 0.10827  0.13977  0.60036  Biso   1.000  C
  C108     1.0000 0.89278  0.36033  0.09560  Biso   1.000  C
  C109     1.0000 0.39266  0.13969  0.90399  Biso   1.000  C
  C110     1.0000 0.60793  0.36133  0.39980  Biso   1.000  C
  C111     1.0000 0.60793  0.63874  0.60087  Biso   1.000  C
  C112     1.0000 0.39262  0.86017  0.09531  Biso   1.000  C
  C113     1.0000 0.14016  0.38717  0.09245  Biso   1.000  C
  C114     1.0000 0.85882  0.11341  0.59806  Biso   1.000  C
  C115     1.0000 0.85873  0.88661  0.40193  Biso   1.000  C
  C116     1.0000 0.14009  0.61285  0.90756  Biso   1.000  C
  C117     1.0000 0.64025  0.88695  0.09146  Biso   1.000  C
  C118     1.0000 0.35905  0.61237  0.59754  Biso   1.000  C
  C119     1.0000 0.35913  0.38777  0.40227  Biso   1.000  C
  C120     1.0000 0.64032  0.11324  0.90891  Biso   1.000  C
  C121     1.0000 0.85984  0.61283  0.90755  Biso   1.000  C
  C122     1.0000 0.14118  0.88659  0.40194  Biso   1.000  C
  C123     1.0000 0.14127  0.11339  0.59807  Biso   1.000  C
  C124     1.0000 0.85991  0.38715  0.09244  Biso   1.000  C
  C125     1.0000 0.35975  0.11305  0.90854  Biso   1.000  C
  C126     1.0000 0.64095  0.38764  0.40246  Biso   1.000  C
  C127     1.0000 0.64087  0.61223  0.59773  Biso   1.000  C
  C128     1.0000 0.35968  0.88677  0.09110  Biso   1.000  C
  H65      1.0000 0.15198  0.39684  0.95534  Biso   1.000  H
  H66      1.0000 0.84687  0.10347  0.46186  Biso   1.000  H
  H67      1.0000 0.84676  0.89655  0.53820  Biso   1.000  H
  H68      1.0000 0.15189  0.60318  0.04456  Biso   1.000  H
  H69      1.0000 0.65200  0.89645  0.95402  Biso   1.000  H
  H70      1.0000 0.34701  0.60302  0.46108  Biso   1.000  H
  H71      1.0000 0.34702  0.39708  0.53877  Biso   1.000  H
  H72      1.0000 0.65199  0.10365  0.04630  Biso   1.000  H
  H73      1.0000 0.84802  0.60316  0.04466  Biso   1.000  H
  H74      1.0000 0.15313  0.89653  0.53814  Biso   1.000  H
  H75      1.0000 0.15324  0.10345  0.46180  Biso   1.000  H
  H76      1.0000 0.84811  0.39682  0.95544  Biso   1.000  H
  H77      1.0000 0.34800  0.10354  0.04598  Biso   1.000  H
  H78      1.0000 0.65300  0.39698  0.53892  Biso   1.000  H
  H79      1.0000 0.65298  0.60292  0.46123  Biso   1.000  H
  H80      1.0000 0.34801  0.89635  0.95371  Biso   1.000  H
