data_image0
_cell_length_a       12.7254
_cell_length_b       15.553
_cell_length_c       30.3284
_cell_angle_alpha    90
_cell_angle_beta     94.8141
_cell_angle_gamma    90

_symmetry_space_group_name_H-M    "P 1"
_symmetry_int_tables_number       1

loop_
  _symmetry_equiv_pos_as_xyz
  'x, y, z'

loop_
  _atom_site_label
  _atom_site_occupancy
  _atom_site_fract_x
  _atom_site_fract_y
  _atom_site_fract_z
  _atom_site_thermal_displace_type
  _atom_site_B_iso_or_equiv
  _atom_site_type_symbol
  Fe1      1.0000 0.21792  0.01984  0.44810  Biso   1.000  Fe
  Fe2      1.0000 0.78208  0.01984  0.05190  Biso   1.000  Fe
  Fe3      1.0000 0.71790  0.51985  0.44808  Biso   1.000  Fe
  Fe4      1.0000 0.28210  0.51985  0.05192  Biso   1.000  Fe
  Fe5      1.0000 0.78212  0.98015  0.55191  Biso   1.000  Fe
  Fe6      1.0000 0.21788  0.98015  0.94809  Biso   1.000  Fe
  Fe7      1.0000 0.28213  0.48016  0.55192  Biso   1.000  Fe
  Fe8      1.0000 0.71787  0.48016  0.94808  Biso   1.000  Fe
  Au1      1.0000 0.96906  0.26946  0.45294  Biso   1.000  Au
  Au2      1.0000 0.03094  0.26946  0.04706  Biso   1.000  Au
  Au3      1.0000 0.46911  0.76948  0.45293  Biso   1.000  Au
  Au4      1.0000 0.53089  0.76948  0.04707  Biso   1.000  Au
  Au5      1.0000 0.03091  0.73045  0.54705  Biso   1.000  Au
  Au6      1.0000 0.96909  0.73045  0.95295  Biso   1.000  Au
  Au7      1.0000 0.53105  0.23056  0.54707  Biso   1.000  Au
  Au8      1.0000 0.46895  0.23056  0.95293  Biso   1.000  Au
  Au9      1.0000 0.47429  0.26545  0.44622  Biso   1.000  Au
  Au10     1.0000 0.52571  0.26545  0.05378  Biso   1.000  Au
  Au11     1.0000 0.97428  0.76546  0.44620  Biso   1.000  Au
  Au12     1.0000 0.02572  0.76546  0.05380  Biso   1.000  Au
  Au13     1.0000 0.52571  0.73455  0.55379  Biso   1.000  Au
  Au14     1.0000 0.47429  0.73455  0.94621  Biso   1.000  Au
  Au15     1.0000 0.02580  0.23446  0.55378  Biso   1.000  Au
  Au16     1.0000 0.97420  0.23446  0.94622  Biso   1.000  Au
  C1       1.0000 0.38621  0.15923  0.44599  Biso   1.000  C
  C2       1.0000 0.61379  0.15923  0.05401  Biso   1.000  C
  C3       1.0000 0.88612  0.65928  0.44596  Biso   1.000  C
  C4       1.0000 0.11388  0.65928  0.05404  Biso   1.000  C
  C5       1.0000 0.61378  0.84078  0.55402  Biso   1.000  C
  C6       1.0000 0.38622  0.84078  0.94598  Biso   1.000  C
  C7       1.0000 0.11396  0.34067  0.55403  Biso   1.000  C
  C8       1.0000 0.88604  0.34067  0.94597  Biso   1.000  C
  C9       1.0000 0.06235  0.16869  0.44515  Biso   1.000  C
  C10      1.0000 0.93765  0.16869  0.05485  Biso   1.000  C
  C11      1.0000 0.56233  0.66870  0.44512  Biso   1.000  C
  C12      1.0000 0.43767  0.66870  0.05488  Biso   1.000  C
  C13      1.0000 0.93764  0.83121  0.55485  Biso   1.000  C
  C14      1.0000 0.06236  0.83121  0.94515  Biso   1.000  C
  C15      1.0000 0.43780  0.33133  0.55489  Biso   1.000  C
  C16      1.0000 0.56220  0.33133  0.94511  Biso   1.000  C
  C17      1.0000 0.05741  0.87411  0.44474  Biso   1.000  C
  C18      1.0000 0.94259  0.87411  0.05526  Biso   1.000  C
  C19      1.0000 0.55731  0.37412  0.44474  Biso   1.000  C
  C20      1.0000 0.44269  0.37412  0.05526  Biso   1.000  C
  C21      1.0000 0.94269  0.12585  0.55523  Biso   1.000  C
  C22      1.0000 0.05731  0.12585  0.94477  Biso   1.000  C
  C23      1.0000 0.44270  0.62588  0.55527  Biso   1.000  C
  C24      1.0000 0.55730  0.62588  0.94473  Biso   1.000  C
  C25      1.0000 0.37402  0.87076  0.45636  Biso   1.000  C
  C26      1.0000 0.62598  0.87076  0.04364  Biso   1.000  C
  C27      1.0000 0.87399  0.37069  0.45636  Biso   1.000  C
  C28      1.0000 0.12601  0.37069  0.04364  Biso   1.000  C
  C29      1.0000 0.62606  0.12932  0.54363  Biso   1.000  C
  C30      1.0000 0.37394  0.12932  0.95637  Biso   1.000  C
  C31      1.0000 0.12597  0.62926  0.54363  Biso   1.000  C
  C32      1.0000 0.87403  0.62926  0.95637  Biso   1.000  C
  N1       1.0000 0.32624  0.10227  0.44760  Biso   1.000  N
  N2       1.0000 0.67376  0.10227  0.05240  Biso   1.000  N
  N3       1.0000 0.82618  0.60228  0.44757  Biso   1.000  N
  N4       1.0000 0.17382  0.60228  0.05243  Biso   1.000  N
  N5       1.0000 0.67378  0.89775  0.55242  Biso   1.000  N
  N6       1.0000 0.32622  0.89775  0.94758  Biso   1.000  N
  N7       1.0000 0.17390  0.39767  0.55243  Biso   1.000  N
  N8       1.0000 0.82610  0.39767  0.94757  Biso   1.000  N
  N9       1.0000 0.11924  0.10978  0.44341  Biso   1.000  N
  N10      1.0000 0.88076  0.10978  0.05659  Biso   1.000  N
  N11      1.0000 0.61923  0.60975  0.44338  Biso   1.000  N
  N12      1.0000 0.38077  0.60975  0.05662  Biso   1.000  N
  N13      1.0000 0.88072  0.89019  0.55660  Biso   1.000  N
  N14      1.0000 0.11928  0.89019  0.94340  Biso   1.000  N
  N15      1.0000 0.38085  0.39027  0.55664  Biso   1.000  N
  N16      1.0000 0.61915  0.39027  0.94336  Biso   1.000  N
  N17      1.0000 0.11106  0.93544  0.44613  Biso   1.000  N
  N18      1.0000 0.88894  0.93544  0.05387  Biso   1.000  N
  N19      1.0000 0.61102  0.43549  0.44612  Biso   1.000  N
  N20      1.0000 0.38898  0.43549  0.05388  Biso   1.000  N
  N21      1.0000 0.88902  0.06448  0.55385  Biso   1.000  N
  N22      1.0000 0.11098  0.06448  0.94615  Biso   1.000  N
  N23      1.0000 0.38900  0.56452  0.55389  Biso   1.000  N
  N24      1.0000 0.61100  0.56452  0.94611  Biso   1.000  N
  N25      1.0000 0.31679  0.92979  0.45491  Biso   1.000  N
  N26      1.0000 0.68321  0.92979  0.04509  Biso   1.000  N
  N27      1.0000 0.81672  0.42977  0.45491  Biso   1.000  N
  N28      1.0000 0.18328  0.42977  0.04509  Biso   1.000  N
  N29      1.0000 0.68332  0.07019  0.54508  Biso   1.000  N
  N30      1.0000 0.31668  0.07019  0.95492  Biso   1.000  N
  N31      1.0000 0.18330  0.57017  0.54509  Biso   1.000  N
  N32      1.0000 0.81670  0.57017  0.95491  Biso   1.000  N
  N33      1.0000 0.21689  0.01038  0.38324  Biso   1.000  N
  N34      1.0000 0.78311  0.01038  0.11676  Biso   1.000  N
  N35      1.0000 0.71685  0.51030  0.38322  Biso   1.000  N
  N36      1.0000 0.28315  0.51030  0.11678  Biso   1.000  N
  N37      1.0000 0.78320  0.98966  0.61676  Biso   1.000  N
  N38      1.0000 0.21680  0.98966  0.88324  Biso   1.000  N
  N39      1.0000 0.28315  0.48970  0.61679  Biso   1.000  N
  N40      1.0000 0.71685  0.48970  0.88321  Biso   1.000  N
  C33      1.0000 0.30716  0.99259  0.36428  Biso   1.000  C
  C34      1.0000 0.69284  0.99259  0.13572  Biso   1.000  C
  C35      1.0000 0.80711  0.49253  0.36427  Biso   1.000  C
  C36      1.0000 0.19289  0.49253  0.13573  Biso   1.000  C
  C37      1.0000 0.69294  0.00752  0.63572  Biso   1.000  C
  C38      1.0000 0.30706  0.00752  0.86428  Biso   1.000  C
  C39      1.0000 0.19289  0.50752  0.63573  Biso   1.000  C
  C40      1.0000 0.80711  0.50752  0.86427  Biso   1.000  C
  H1       1.0000 0.37845  0.98924  0.38652  Biso   1.000  H
  H2       1.0000 0.62155  0.98924  0.11348  Biso   1.000  H
  H3       1.0000 0.87837  0.48922  0.38651  Biso   1.000  H
  H4       1.0000 0.12163  0.48922  0.11349  Biso   1.000  H
  H5       1.0000 0.62163  0.01085  0.61350  Biso   1.000  H
  H6       1.0000 0.37837  0.01085  0.88650  Biso   1.000  H
  H7       1.0000 0.12164  0.51081  0.61348  Biso   1.000  H
  H8       1.0000 0.87836  0.51081  0.88652  Biso   1.000  H
  C41      1.0000 0.30917  0.97831  0.31922  Biso   1.000  C
  C42      1.0000 0.69083  0.97831  0.18078  Biso   1.000  C
  C43      1.0000 0.80913  0.47829  0.31920  Biso   1.000  C
  C44      1.0000 0.19087  0.47829  0.18080  Biso   1.000  C
  C45      1.0000 0.69095  0.02183  0.68078  Biso   1.000  C
  C46      1.0000 0.30905  0.02183  0.81922  Biso   1.000  C
  C47      1.0000 0.19086  0.52183  0.68079  Biso   1.000  C
  C48      1.0000 0.80914  0.52183  0.81921  Biso   1.000  C
  H9       1.0000 0.38430  0.96407  0.30612  Biso   1.000  H
  H10      1.0000 0.61570  0.96407  0.19388  Biso   1.000  H
  H11      1.0000 0.88427  0.46406  0.30612  Biso   1.000  H
  H12      1.0000 0.11573  0.46406  0.19388  Biso   1.000  H
  H13      1.0000 0.61583  0.03610  0.69389  Biso   1.000  H
  H14      1.0000 0.38417  0.03610  0.80611  Biso   1.000  H
  H15      1.0000 0.11573  0.53610  0.69386  Biso   1.000  H
  H16      1.0000 0.88427  0.53610  0.80614  Biso   1.000  H
  C49      1.0000 0.21571  0.98478  0.29128  Biso   1.000  C
  C50      1.0000 0.78429  0.98478  0.20872  Biso   1.000  C
  C51      1.0000 0.71568  0.48476  0.29127  Biso   1.000  C
  C52      1.0000 0.28432  0.48476  0.20873  Biso   1.000  C
  C53      1.0000 0.78440  0.01531  0.70873  Biso   1.000  C
  C54      1.0000 0.21560  0.01531  0.79127  Biso   1.000  C
  C55      1.0000 0.28430  0.51539  0.70873  Biso   1.000  C
  C56      1.0000 0.71570  0.51539  0.79127  Biso   1.000  C
  C57      1.0000 0.12328  0.00722  0.31078  Biso   1.000  C
  C58      1.0000 0.87672  0.00722  0.18922  Biso   1.000  C
  C59      1.0000 0.62322  0.50712  0.31077  Biso   1.000  C
  C60      1.0000 0.37678  0.50712  0.18923  Biso   1.000  C
  C61      1.0000 0.87683  0.99292  0.68922  Biso   1.000  C
  C62      1.0000 0.12317  0.99292  0.81078  Biso   1.000  C
  C63      1.0000 0.37676  0.49299  0.68924  Biso   1.000  C
  C64      1.0000 0.62324  0.49299  0.81076  Biso   1.000  C
  H17      1.0000 0.04846  0.01485  0.29096  Biso   1.000  H
  H18      1.0000 0.95154  0.01485  0.20904  Biso   1.000  H
  H19      1.0000 0.54842  0.51478  0.29092  Biso   1.000  H
  H20      1.0000 0.45158  0.51478  0.20908  Biso   1.000  H
  H21      1.0000 0.95166  0.98523  0.70904  Biso   1.000  H
  H22      1.0000 0.04834  0.98523  0.79096  Biso   1.000  H
  H23      1.0000 0.45157  0.48535  0.70909  Biso   1.000  H
  H24      1.0000 0.54843  0.48535  0.79091  Biso   1.000  H
  C65      1.0000 0.12649  0.01789  0.35636  Biso   1.000  C
  C66      1.0000 0.87351  0.01789  0.14364  Biso   1.000  C
  C67      1.0000 0.62645  0.51786  0.35634  Biso   1.000  C
  C68      1.0000 0.37355  0.51786  0.14366  Biso   1.000  C
  C69      1.0000 0.87358  0.98211  0.64364  Biso   1.000  C
  C70      1.0000 0.12642  0.98211  0.85636  Biso   1.000  C
  C71      1.0000 0.37355  0.48218  0.64367  Biso   1.000  C
  C72      1.0000 0.62645  0.48218  0.85633  Biso   1.000  C
  H25      1.0000 0.05516  0.03240  0.37224  Biso   1.000  H
  H26      1.0000 0.94484  0.03240  0.12776  Biso   1.000  H
  H27      1.0000 0.55507  0.53230  0.37221  Biso   1.000  H
  H28      1.0000 0.44493  0.53230  0.12779  Biso   1.000  H
  H29      1.0000 0.94492  0.96763  0.62776  Biso   1.000  H
  H30      1.0000 0.05508  0.96763  0.87224  Biso   1.000  H
  H31      1.0000 0.44494  0.46770  0.62781  Biso   1.000  H
  H32      1.0000 0.55506  0.46770  0.87219  Biso   1.000  H
  C73      1.0000 0.21587  0.96903  0.24337  Biso   1.000  C
  C74      1.0000 0.78413  0.96903  0.25663  Biso   1.000  C
  C75      1.0000 0.71590  0.46906  0.24335  Biso   1.000  C
  C76      1.0000 0.28410  0.46906  0.25665  Biso   1.000  C
  C77      1.0000 0.78426  0.03108  0.75664  Biso   1.000  C
  C78      1.0000 0.21574  0.03108  0.74336  Biso   1.000  C
  C79      1.0000 0.28409  0.53112  0.75665  Biso   1.000  C
  C80      1.0000 0.71591  0.53112  0.74335  Biso   1.000  C
  C81      1.0000 0.28288  0.90774  0.22617  Biso   1.000  C
  C82      1.0000 0.71712  0.90774  0.27383  Biso   1.000  C
  C83      1.0000 0.78281  0.40773  0.22613  Biso   1.000  C
  C84      1.0000 0.21719  0.40773  0.27387  Biso   1.000  C
  C85      1.0000 0.71721  0.09233  0.77385  Biso   1.000  C
  C86      1.0000 0.28279  0.09233  0.72615  Biso   1.000  C
  C87      1.0000 0.21714  0.59241  0.77387  Biso   1.000  C
  C88      1.0000 0.78286  0.59241  0.72613  Biso   1.000  C
  H33      1.0000 0.33231  0.86657  0.24826  Biso   1.000  H
  H34      1.0000 0.66769  0.86657  0.25174  Biso   1.000  H
  H35      1.0000 0.83223  0.36654  0.24822  Biso   1.000  H
  H36      1.0000 0.16777  0.36654  0.25178  Biso   1.000  H
  H37      1.0000 0.66774  0.13351  0.75176  Biso   1.000  H
  H38      1.0000 0.33226  0.13351  0.74824  Biso   1.000  H
  H39      1.0000 0.16768  0.63358  0.75179  Biso   1.000  H
  H40      1.0000 0.83232  0.63358  0.74821  Biso   1.000  H
  N41      1.0000 0.14793  0.01010  0.17281  Biso   1.000  N
  N42      1.0000 0.85207  0.01010  0.32719  Biso   1.000  N
  N43      1.0000 0.64801  0.51023  0.17280  Biso   1.000  N
  N44      1.0000 0.35199  0.51023  0.32720  Biso   1.000  N
  N45      1.0000 0.85217  0.98999  0.82718  Biso   1.000  N
  N46      1.0000 0.14783  0.98999  0.67282  Biso   1.000  N
  N47      1.0000 0.35204  0.48996  0.82719  Biso   1.000  N
  N48      1.0000 0.64796  0.48996  0.67281  Biso   1.000  N
  N49      1.0000 0.14787  0.01636  0.21663  Biso   1.000  N
  N50      1.0000 0.85213  0.01636  0.28337  Biso   1.000  N
  N51      1.0000 0.64792  0.51641  0.21662  Biso   1.000  N
  N52      1.0000 0.35208  0.51641  0.28338  Biso   1.000  N
  N53      1.0000 0.85231  0.98377  0.78336  Biso   1.000  N
  N54      1.0000 0.14769  0.98377  0.71664  Biso   1.000  N
  N55      1.0000 0.35211  0.48380  0.78337  Biso   1.000  N
  N56      1.0000 0.64789  0.48380  0.71663  Biso   1.000  N
  C89      1.0000 0.28222  0.90064  0.18074  Biso   1.000  C
  C90      1.0000 0.71778  0.90064  0.31926  Biso   1.000  C
  C91      1.0000 0.78222  0.40071  0.18071  Biso   1.000  C
  C92      1.0000 0.21778  0.40071  0.31929  Biso   1.000  C
  C93      1.0000 0.71784  0.09940  0.81928  Biso   1.000  C
  C94      1.0000 0.28216  0.09940  0.68072  Biso   1.000  C
  C95      1.0000 0.21774  0.59942  0.81930  Biso   1.000  C
  C96      1.0000 0.78226  0.59942  0.68070  Biso   1.000  C
  H41      1.0000 0.33266  0.85478  0.16550  Biso   1.000  H
  H42      1.0000 0.66734  0.85478  0.33450  Biso   1.000  H
  H43      1.0000 0.83261  0.35483  0.16545  Biso   1.000  H
  H44      1.0000 0.16739  0.35483  0.33455  Biso   1.000  H
  H45      1.0000 0.66738  0.14521  0.83453  Biso   1.000  H
  H46      1.0000 0.33262  0.14521  0.66547  Biso   1.000  H
  H47      1.0000 0.16733  0.64527  0.83456  Biso   1.000  H
  H48      1.0000 0.83267  0.64527  0.66544  Biso   1.000  H
  C97      1.0000 0.21533  0.95582  0.15453  Biso   1.000  C
  C98      1.0000 0.78467  0.95582  0.34547  Biso   1.000  C
  C99      1.0000 0.71531  0.45588  0.15451  Biso   1.000  C
  C100     1.0000 0.28469  0.45588  0.34549  Biso   1.000  C
  C101     1.0000 0.78477  0.04424  0.84548  Biso   1.000  C
  C102     1.0000 0.21523  0.04424  0.65452  Biso   1.000  C
  C103     1.0000 0.28470  0.54426  0.84549  Biso   1.000  C
  C104     1.0000 0.71530  0.54426  0.65451  Biso   1.000  C
  C105     1.0000 0.21532  0.95950  0.10603  Biso   1.000  C
  C106     1.0000 0.78468  0.95950  0.39397  Biso   1.000  C
  C107     1.0000 0.71532  0.45959  0.10601  Biso   1.000  C
  C108     1.0000 0.28468  0.45959  0.39399  Biso   1.000  C
  C109     1.0000 0.78475  0.04051  0.89399  Biso   1.000  C
  C110     1.0000 0.21525  0.04051  0.60601  Biso   1.000  C
  C111     1.0000 0.28468  0.54052  0.89399  Biso   1.000  C
  C112     1.0000 0.71532  0.54052  0.60601  Biso   1.000  C
  C113     1.0000 0.19056  0.03658  0.08349  Biso   1.000  C
  C114     1.0000 0.80944  0.03658  0.41651  Biso   1.000  C
  C115     1.0000 0.69050  0.53665  0.08346  Biso   1.000  C
  C116     1.0000 0.30950  0.53665  0.41654  Biso   1.000  C
  C117     1.0000 0.80947  0.96341  0.91650  Biso   1.000  C
  C118     1.0000 0.19053  0.96341  0.58350  Biso   1.000  C
  C119     1.0000 0.30951  0.46344  0.91651  Biso   1.000  C
  C120     1.0000 0.69049  0.46344  0.58349  Biso   1.000  C
  H49      1.0000 0.16954  0.09362  0.10146  Biso   1.000  H
  H50      1.0000 0.83046  0.09362  0.39854  Biso   1.000  H
  H51      1.0000 0.66951  0.59371  0.10144  Biso   1.000  H
  H52      1.0000 0.33049  0.59371  0.39856  Biso   1.000  H
  H53      1.0000 0.83049  0.90637  0.89853  Biso   1.000  H
  H54      1.0000 0.16951  0.90637  0.60147  Biso   1.000  H
  H55      1.0000 0.33051  0.40639  0.89853  Biso   1.000  H
  H56      1.0000 0.66949  0.40639  0.60147  Biso   1.000  H
  C121     1.0000 0.19443  0.04051  0.03803  Biso   1.000  C
  C122     1.0000 0.80557  0.04051  0.46197  Biso   1.000  C
  C123     1.0000 0.69432  0.54055  0.03799  Biso   1.000  C
  C124     1.0000 0.30568  0.54055  0.46201  Biso   1.000  C
  C125     1.0000 0.80558  0.95946  0.96197  Biso   1.000  C
  C126     1.0000 0.19442  0.95946  0.53803  Biso   1.000  C
  C127     1.0000 0.30566  0.45949  0.96199  Biso   1.000  C
  C128     1.0000 0.69434  0.45949  0.53801  Biso   1.000  C
  H57      1.0000 0.17784  0.09999  0.02018  Biso   1.000  H
  H58      1.0000 0.82216  0.09999  0.47982  Biso   1.000  H
  H59      1.0000 0.67772  0.60004  0.02014  Biso   1.000  H
  H60      1.0000 0.32228  0.60004  0.47986  Biso   1.000  H
  H61      1.0000 0.82213  0.89997  0.97982  Biso   1.000  H
  H62      1.0000 0.17787  0.89997  0.52018  Biso   1.000  H
  H63      1.0000 0.32227  0.39998  0.97983  Biso   1.000  H
  H64      1.0000 0.67773  0.39998  0.52017  Biso   1.000  H
  C129     1.0000 0.24064  0.89660  0.03496  Biso   1.000  C
  C130     1.0000 0.75936  0.89660  0.46504  Biso   1.000  C
  C131     1.0000 0.74051  0.39665  0.03494  Biso   1.000  C
  C132     1.0000 0.25949  0.39665  0.46506  Biso   1.000  C
  C133     1.0000 0.75940  0.10337  0.96505  Biso   1.000  C
  C134     1.0000 0.24060  0.10337  0.53495  Biso   1.000  C
  C135     1.0000 0.25945  0.60338  0.96507  Biso   1.000  C
  C136     1.0000 0.74055  0.60338  0.53493  Biso   1.000  C
  H65      1.0000 0.25830  0.84205  0.01463  Biso   1.000  H
  H66      1.0000 0.74170  0.84205  0.48537  Biso   1.000  H
  H67      1.0000 0.75814  0.34208  0.01461  Biso   1.000  H
  H68      1.0000 0.24186  0.34208  0.48539  Biso   1.000  H
  H69      1.0000 0.74175  0.15792  0.98538  Biso   1.000  H
  H70      1.0000 0.25825  0.15792  0.51462  Biso   1.000  H
  H71      1.0000 0.24180  0.65792  0.98541  Biso   1.000  H
  H72      1.0000 0.75820  0.65792  0.51459  Biso   1.000  H
  C137     1.0000 0.24146  0.88857  0.08060  Biso   1.000  C
  C138     1.0000 0.75854  0.88857  0.41940  Biso   1.000  C
  C139     1.0000 0.74138  0.38863  0.08058  Biso   1.000  C
  C140     1.0000 0.25862  0.38863  0.41942  Biso   1.000  C
  C141     1.0000 0.75860  0.11143  0.91942  Biso   1.000  C
  C142     1.0000 0.24140  0.11143  0.58058  Biso   1.000  C
  C143     1.0000 0.25859  0.61144  0.91944  Biso   1.000  C
  C144     1.0000 0.74141  0.61144  0.58056  Biso   1.000  C
  H73      1.0000 0.25974  0.82604  0.09534  Biso   1.000  H
  H74      1.0000 0.74026  0.82604  0.40466  Biso   1.000  H
  H75      1.0000 0.75967  0.32611  0.09532  Biso   1.000  H
  H76      1.0000 0.24033  0.32611  0.40468  Biso   1.000  H
  H77      1.0000 0.74036  0.17396  0.90468  Biso   1.000  H
  H78      1.0000 0.25964  0.17396  0.59532  Biso   1.000  H
  H79      1.0000 0.24031  0.67397  0.90471  Biso   1.000  H
  H80      1.0000 0.75969  0.67397  0.59529  Biso   1.000  H
  N57      1.0000 0.21828  0.97150  0.01345  Biso   1.000  N
  N58      1.0000 0.78172  0.97150  0.48655  Biso   1.000  N
  N59      1.0000 0.71818  0.47154  0.01341  Biso   1.000  N
  N60      1.0000 0.28182  0.47154  0.48659  Biso   1.000  N
  N61      1.0000 0.78171  0.02845  0.98655  Biso   1.000  N
  N62      1.0000 0.21829  0.02845  0.51345  Biso   1.000  N
  N63      1.0000 0.28177  0.52847  0.98658  Biso   1.000  N
  N64      1.0000 0.71823  0.52847  0.51342  Biso   1.000  N
