data_image0
_cell_length_a       24.4145
_cell_length_b       24.4146
_cell_length_c       13.0373
_cell_angle_alpha    89.9793
_cell_angle_beta     90.021
_cell_angle_gamma    119.981

_symmetry_space_group_name_H-M    "P 1"
_symmetry_int_tables_number       1

loop_
  _symmetry_equiv_pos_as_xyz
  'x, y, z'

loop_
  _atom_site_label
  _atom_site_occupancy
  _atom_site_fract_x
  _atom_site_fract_y
  _atom_site_fract_z
  _atom_site_thermal_displace_type
  _atom_site_B_iso_or_equiv
  _atom_site_type_symbol
  La1      1.0000 0.33337  0.34436  0.16664  Biso   1.000  La
  La2      1.0000 0.65569  0.98901  0.16671  Biso   1.000  La
  La3      1.0000 0.01105  0.66674  0.16677  Biso   1.000  La
  La4      1.0000 0.34437  0.33340  0.83343  Biso   1.000  La
  La5      1.0000 0.98902  0.65568  0.83336  Biso   1.000  La
  La6      1.0000 0.66671  0.01103  0.83330  Biso   1.000  La
  La7      1.0000 0.00004  0.67769  0.49997  Biso   1.000  La
  La8      1.0000 0.32236  0.32234  0.50004  Biso   1.000  La
  La9      1.0000 0.67771  0.00007  0.50010  Biso   1.000  La
  O1       1.0000 0.39235  0.29393  0.22988  Biso   1.000  O
  O2       1.0000 0.70610  0.09843  0.22971  Biso   1.000  O
  O3       1.0000 0.90162  0.60771  0.22976  Biso   1.000  O
  O4       1.0000 0.29393  0.39236  0.77013  Biso   1.000  O
  O5       1.0000 0.09843  0.70610  0.77031  Biso   1.000  O
  O6       1.0000 0.60771  0.90161  0.77025  Biso   1.000  O
  O7       1.0000 0.05902  0.62726  0.56322  Biso   1.000  O
  O8       1.0000 0.37277  0.43177  0.56305  Biso   1.000  O
  O9       1.0000 0.56828  0.94105  0.56310  Biso   1.000  O
  O10      1.0000 0.96060  0.72569  0.10346  Biso   1.000  O
  O11      1.0000 0.76510  0.03943  0.10363  Biso   1.000  O
  O12      1.0000 0.27437  0.23495  0.10358  Biso   1.000  O
  O13      1.0000 0.72569  0.96060  0.89655  Biso   1.000  O
  O14      1.0000 0.03943  0.76510  0.89638  Biso   1.000  O
  O15      1.0000 0.23495  0.27438  0.89643  Biso   1.000  O
  O16      1.0000 0.62727  0.05902  0.43680  Biso   1.000  O
  O17      1.0000 0.43177  0.37276  0.43696  Biso   1.000  O
  O18      1.0000 0.94104  0.56828  0.43691  Biso   1.000  O
  O19      1.0000 0.31024  0.26151  0.33757  Biso   1.000  O
  O20      1.0000 0.73852  0.04876  0.33756  Biso   1.000  O
  O21      1.0000 0.95129  0.68980  0.33747  Biso   1.000  O
  O22      1.0000 0.26151  0.31024  0.66246  Biso   1.000  O
  O23      1.0000 0.04876  0.73851  0.66247  Biso   1.000  O
  O24      1.0000 0.68981  0.95129  0.66256  Biso   1.000  O
  O25      1.0000 0.97691  0.59484  0.67090  Biso   1.000  O
  O26      1.0000 0.40519  0.38210  0.67090  Biso   1.000  O
  O27      1.0000 0.61796  0.02314  0.67081  Biso   1.000  O
  O28      1.0000 0.92818  0.64358  0.99578  Biso   1.000  O
  O29      1.0000 0.71543  0.07185  0.99580  Biso   1.000  O
  O30      1.0000 0.35647  0.28462  0.99589  Biso   1.000  O
  O31      1.0000 0.64358  0.92817  0.00424  Biso   1.000  O
  O32      1.0000 0.07185  0.71543  0.00424  Biso   1.000  O
  O33      1.0000 0.28462  0.35647  0.00415  Biso   1.000  O
  O34      1.0000 0.59484  0.97691  0.32913  Biso   1.000  O
  O35      1.0000 0.38209  0.40518  0.32913  Biso   1.000  O
  O36      1.0000 0.02314  0.61796  0.32922  Biso   1.000  O
  O37      1.0000 0.09632  0.76057  0.24675  Biso   1.000  O
  O38      1.0000 0.23938  0.33586  0.24601  Biso   1.000  O
  O39      1.0000 0.66435  0.90389  0.24735  Biso   1.000  O
  O40      1.0000 0.76061  0.09639  0.75360  Biso   1.000  O
  O41      1.0000 0.33587  0.23934  0.75427  Biso   1.000  O
  O42      1.0000 0.90385  0.66433  0.75284  Biso   1.000  O
  O43      1.0000 0.76300  0.09392  0.57998  Biso   1.000  O
  O44      1.0000 0.90602  0.66919  0.57921  Biso   1.000  O
  O45      1.0000 0.33101  0.23721  0.58064  Biso   1.000  O
  O46      1.0000 0.42727  0.42972  0.08695  Biso   1.000  O
  O47      1.0000 0.00254  0.57268  0.08760  Biso   1.000  O
  O48      1.0000 0.57051  0.99765  0.08626  Biso   1.000  O
  O49      1.0000 0.42966  0.42724  0.91333  Biso   1.000  O
  O50      1.0000 0.57271  0.00252  0.91263  Biso   1.000  O
  O51      1.0000 0.99768  0.57055  0.91397  Biso   1.000  O
  O52      1.0000 0.09396  0.76308  0.42038  Biso   1.000  O
  O53      1.0000 0.66920  0.90600  0.42098  Biso   1.000  O
  O54      1.0000 0.23716  0.33098  0.41964  Biso   1.000  O
  N1       1.0000 0.35400  0.02066  0.33332  Biso   1.000  N
  N2       1.0000 0.97929  0.33332  0.33338  Biso   1.000  N
  N3       1.0000 0.66665  0.64595  0.33326  Biso   1.000  N
  N4       1.0000 0.02066  0.35400  0.66666  Biso   1.000  N
  N5       1.0000 0.33331  0.97928  0.66660  Biso   1.000  N
  N6       1.0000 0.64595  0.66665  0.66673  Biso   1.000  N
  N7       1.0000 0.68733  0.68733  0.99999  Biso   1.000  N
  N8       1.0000 0.99998  0.31262  0.99993  Biso   1.000  N
  N9       1.0000 0.31262  0.99998  0.00005  Biso   1.000  N
  C1       1.0000 0.35305  0.07786  0.32175  Biso   1.000  C
  C2       1.0000 0.92209  0.27520  0.32181  Biso   1.000  C
  C3       1.0000 0.72480  0.64691  0.32174  Biso   1.000  C
  C4       1.0000 0.07786  0.35305  0.67825  Biso   1.000  C
  C5       1.0000 0.27519  0.92209  0.67819  Biso   1.000  C
  C6       1.0000 0.64691  0.72480  0.67827  Biso   1.000  C
  C7       1.0000 0.01972  0.41119  0.65509  Biso   1.000  C
  C8       1.0000 0.58876  0.60853  0.65515  Biso   1.000  C
  C9       1.0000 0.39146  0.98024  0.65508  Biso   1.000  C
  C10      1.0000 0.74453  0.68638  0.01158  Biso   1.000  C
  C11      1.0000 0.94186  0.25543  0.01152  Biso   1.000  C
  C12      1.0000 0.31358  0.05813  0.01159  Biso   1.000  C
  C13      1.0000 0.68639  0.74452  0.98842  Biso   1.000  C
  C14      1.0000 0.25543  0.94187  0.98848  Biso   1.000  C
  C15      1.0000 0.05813  0.31358  0.98841  Biso   1.000  C
  C16      1.0000 0.41119  0.01972  0.34491  Biso   1.000  C
  C17      1.0000 0.60853  0.58876  0.34485  Biso   1.000  C
  C18      1.0000 0.98025  0.39147  0.34492  Biso   1.000  C
  C19      1.0000 0.30129  0.08265  0.35830  Biso   1.000  C
  C20      1.0000 0.91733  0.21864  0.35833  Biso   1.000  C
  C21      1.0000 0.78134  0.69869  0.35825  Biso   1.000  C
  C22      1.0000 0.08266  0.30129  0.64171  Biso   1.000  C
  C23      1.0000 0.21863  0.91733  0.64168  Biso   1.000  C
  C24      1.0000 0.69870  0.78134  0.64176  Biso   1.000  C
  C25      1.0000 0.96796  0.41599  0.69163  Biso   1.000  C
  C26      1.0000 0.58400  0.55197  0.69167  Biso   1.000  C
  C27      1.0000 0.44800  0.03203  0.69158  Biso   1.000  C
  C28      1.0000 0.74932  0.63462  0.97504  Biso   1.000  C
  C29      1.0000 0.88530  0.25066  0.97501  Biso   1.000  C
  C30      1.0000 0.36536  0.11467  0.97509  Biso   1.000  C
  C31      1.0000 0.63463  0.74932  0.02497  Biso   1.000  C
  C32      1.0000 0.25066  0.88530  0.02500  Biso   1.000  C
  C33      1.0000 0.11467  0.36536  0.02492  Biso   1.000  C
  C34      1.0000 0.41599  0.96796  0.30837  Biso   1.000  C
  C35      1.0000 0.55197  0.58400  0.30835  Biso   1.000  C
  C36      1.0000 0.03203  0.44801  0.30842  Biso   1.000  C
  H1       1.0000 0.26212  0.04202  0.39504  Biso   1.000  H
  H2       1.0000 0.95798  0.22008  0.39508  Biso   1.000  H
  H3       1.0000 0.77985  0.73786  0.39498  Biso   1.000  H
  H4       1.0000 0.04202  0.26212  0.60496  Biso   1.000  H
  H5       1.0000 0.22008  0.95797  0.60493  Biso   1.000  H
  H6       1.0000 0.73786  0.77986  0.60503  Biso   1.000  H
  H7       1.0000 0.92879  0.37535  0.72838  Biso   1.000  H
  H8       1.0000 0.62464  0.55342  0.72841  Biso   1.000  H
  H9       1.0000 0.44652  0.07120  0.72832  Biso   1.000  H
  H10      1.0000 0.70868  0.59545  0.93829  Biso   1.000  H
  H11      1.0000 0.88675  0.29131  0.93826  Biso   1.000  H
  H12      1.0000 0.40453  0.11319  0.93835  Biso   1.000  H
  H13      1.0000 0.59545  0.70868  0.06171  Biso   1.000  H
  H14      1.0000 0.29131  0.88675  0.06175  Biso   1.000  H
  H15      1.0000 0.11319  0.40453  0.06165  Biso   1.000  H
  H16      1.0000 0.37535  0.92879  0.27162  Biso   1.000  H
  H17      1.0000 0.55341  0.62464  0.27159  Biso   1.000  H
  H18      1.0000 0.07120  0.44652  0.27169  Biso   1.000  H
  C37      1.0000 0.30119  0.13940  0.35042  Biso   1.000  C
  C38      1.0000 0.86061  0.16180  0.35042  Biso   1.000  C
  C39      1.0000 0.83820  0.69882  0.35035  Biso   1.000  C
  C40      1.0000 0.13940  0.30119  0.64960  Biso   1.000  C
  C41      1.0000 0.16179  0.86060  0.64960  Biso   1.000  C
  C42      1.0000 0.69883  0.83820  0.64966  Biso   1.000  C
  C43      1.0000 0.96786  0.47273  0.68376  Biso   1.000  C
  C44      1.0000 0.52727  0.49513  0.68375  Biso   1.000  C
  C45      1.0000 0.50486  0.03216  0.68369  Biso   1.000  C
  C46      1.0000 0.80607  0.63452  0.98292  Biso   1.000  C
  C47      1.0000 0.82846  0.19394  0.98293  Biso   1.000  C
  C48      1.0000 0.36549  0.17153  0.98299  Biso   1.000  C
  C49      1.0000 0.63452  0.80607  0.01709  Biso   1.000  C
  C50      1.0000 0.19394  0.82846  0.01709  Biso   1.000  C
  C51      1.0000 0.17153  0.36549  0.01703  Biso   1.000  C
  C52      1.0000 0.47274  0.96785  0.31626  Biso   1.000  C
  C53      1.0000 0.49513  0.52727  0.31626  Biso   1.000  C
  C54      1.0000 0.03216  0.50487  0.31632  Biso   1.000  C
  H19      1.0000 0.26198  0.14357  0.38088  Biso   1.000  H
  H20      1.0000 0.85647  0.11842  0.38088  Biso   1.000  H
  H21      1.0000 0.88155  0.73804  0.38085  Biso   1.000  H
  H22      1.0000 0.14357  0.26198  0.61914  Biso   1.000  H
  H23      1.0000 0.11841  0.85646  0.61913  Biso   1.000  H
  H24      1.0000 0.73804  0.88156  0.61916  Biso   1.000  H
  H25      1.0000 0.92864  0.47690  0.71421  Biso   1.000  H
  H26      1.0000 0.52313  0.45175  0.71422  Biso   1.000  H
  H27      1.0000 0.54822  0.07137  0.71419  Biso   1.000  H
  H28      1.0000 0.81024  0.59531  0.95247  Biso   1.000  H
  H29      1.0000 0.78508  0.18980  0.95246  Biso   1.000  H
  H30      1.0000 0.40470  0.21489  0.95249  Biso   1.000  H
  H31      1.0000 0.59531  0.81024  0.04755  Biso   1.000  H
  H32      1.0000 0.18980  0.78508  0.04755  Biso   1.000  H
  H33      1.0000 0.21489  0.40470  0.04752  Biso   1.000  H
  H34      1.0000 0.47691  0.92864  0.28580  Biso   1.000  H
  H35      1.0000 0.45175  0.52313  0.28580  Biso   1.000  H
  H36      1.0000 0.07137  0.54822  0.28583  Biso   1.000  H
  C55      1.0000 0.35195  0.19236  0.30430  Biso   1.000  C
  C56      1.0000 0.80764  0.15960  0.30427  Biso   1.000  C
  C57      1.0000 0.84043  0.64808  0.30424  Biso   1.000  C
  C58      1.0000 0.19236  0.35195  0.69572  Biso   1.000  C
  C59      1.0000 0.15960  0.80763  0.69575  Biso   1.000  C
  C60      1.0000 0.64808  0.84043  0.69578  Biso   1.000  C
  C61      1.0000 0.01861  0.52569  0.63764  Biso   1.000  C
  C62      1.0000 0.47430  0.49293  0.63760  Biso   1.000  C
  C63      1.0000 0.50710  0.98141  0.63758  Biso   1.000  C
  C64      1.0000 0.85902  0.68528  0.02905  Biso   1.000  C
  C65      1.0000 0.82627  0.14097  0.02908  Biso   1.000  C
  C66      1.0000 0.31475  0.17376  0.02911  Biso   1.000  C
  C67      1.0000 0.68528  0.85902  0.97097  Biso   1.000  C
  C68      1.0000 0.14097  0.82627  0.97094  Biso   1.000  C
  C69      1.0000 0.17376  0.31474  0.97091  Biso   1.000  C
  C70      1.0000 0.52569  0.01861  0.36238  Biso   1.000  C
  C71      1.0000 0.49293  0.47430  0.36241  Biso   1.000  C
  C72      1.0000 0.98141  0.50710  0.36244  Biso   1.000  C
  C73      1.0000 0.40363  0.13094  0.27434  Biso   1.000  C
  C74      1.0000 0.86900  0.27270  0.27440  Biso   1.000  C
  C75      1.0000 0.72733  0.59633  0.27437  Biso   1.000  C
  C76      1.0000 0.13094  0.40363  0.72567  Biso   1.000  C
  C77      1.0000 0.27270  0.86899  0.72561  Biso   1.000  C
  C78      1.0000 0.59633  0.72733  0.72563  Biso   1.000  C
  C79      1.0000 0.07030  0.46427  0.60768  Biso   1.000  C
  C80      1.0000 0.53566  0.60604  0.60774  Biso   1.000  C
  C81      1.0000 0.39399  0.92966  0.60771  Biso   1.000  C
  C82      1.0000 0.79760  0.73696  0.05900  Biso   1.000  C
  C83      1.0000 0.93937  0.20233  0.05894  Biso   1.000  C
  C84      1.0000 0.26300  0.06066  0.05897  Biso   1.000  C
  C85      1.0000 0.73696  0.79760  0.94100  Biso   1.000  C
  C86      1.0000 0.20233  0.93937  0.94107  Biso   1.000  C
  C87      1.0000 0.06066  0.26300  0.94104  Biso   1.000  C
  C88      1.0000 0.46427  0.07030  0.39233  Biso   1.000  C
  C89      1.0000 0.60604  0.53566  0.39227  Biso   1.000  C
  C90      1.0000 0.92967  0.39400  0.39229  Biso   1.000  C
  H37      1.0000 0.44384  0.12821  0.24512  Biso   1.000  H
  H38      1.0000 0.87170  0.31564  0.24519  Biso   1.000  H
  H39      1.0000 0.68441  0.55609  0.24519  Biso   1.000  H
  H40      1.0000 0.12821  0.44384  0.75488  Biso   1.000  H
  H41      1.0000 0.31564  0.87170  0.75481  Biso   1.000  H
  H42      1.0000 0.55609  0.68441  0.75481  Biso   1.000  H
  H43      1.0000 0.11051  0.46154  0.57846  Biso   1.000  H
  H44      1.0000 0.53836  0.64898  0.57854  Biso   1.000  H
  H45      1.0000 0.35107  0.88942  0.57853  Biso   1.000  H
  H46      1.0000 0.79487  0.77717  0.08822  Biso   1.000  H
  H47      1.0000 0.98231  0.20503  0.08814  Biso   1.000  H
  H48      1.0000 0.22276  0.01774  0.08814  Biso   1.000  H
  H49      1.0000 0.77717  0.79487  0.91178  Biso   1.000  H
  H50      1.0000 0.20503  0.98231  0.91187  Biso   1.000  H
  H51      1.0000 0.01774  0.22276  0.91186  Biso   1.000  H
  H52      1.0000 0.46154  0.11051  0.42154  Biso   1.000  H
  H53      1.0000 0.64898  0.53836  0.42146  Biso   1.000  H
  H54      1.0000 0.88943  0.35107  0.42147  Biso   1.000  H
  C91      1.0000 0.40264  0.18703  0.26519  Biso   1.000  C
  C92      1.0000 0.81293  0.21563  0.26520  Biso   1.000  C
  C93      1.0000 0.78443  0.59736  0.26520  Biso   1.000  C
  C94      1.0000 0.18703  0.40264  0.73482  Biso   1.000  C
  C95      1.0000 0.21562  0.81293  0.73481  Biso   1.000  C
  C96      1.0000 0.59736  0.78443  0.73481  Biso   1.000  C
  C97      1.0000 0.06931  0.52036  0.59853  Biso   1.000  C
  C98      1.0000 0.47960  0.54896  0.59854  Biso   1.000  C
  C99      1.0000 0.45109  0.93069  0.59854  Biso   1.000  C
  C100     1.0000 0.85369  0.73597  0.06815  Biso   1.000  C
  C101     1.0000 0.88229  0.14627  0.06815  Biso   1.000  C
  C102     1.0000 0.26403  0.11776  0.06814  Biso   1.000  C
  C103     1.0000 0.73597  0.85370  0.93186  Biso   1.000  C
  C104     1.0000 0.14627  0.88229  0.93187  Biso   1.000  C
  C105     1.0000 0.11776  0.26403  0.93187  Biso   1.000  C
  C106     1.0000 0.52036  0.06931  0.40148  Biso   1.000  C
  C107     1.0000 0.54896  0.47960  0.40147  Biso   1.000  C
  C108     1.0000 0.93069  0.45109  0.40147  Biso   1.000  C
  H55      1.0000 0.44097  0.22771  0.22695  Biso   1.000  H
  H56      1.0000 0.77224  0.21329  0.22695  Biso   1.000  H
  H57      1.0000 0.78680  0.55902  0.22701  Biso   1.000  H
  H58      1.0000 0.22771  0.44097  0.77306  Biso   1.000  H
  H59      1.0000 0.21329  0.77224  0.77306  Biso   1.000  H
  H60      1.0000 0.55902  0.78679  0.77300  Biso   1.000  H
  H61      1.0000 0.10764  0.56105  0.56029  Biso   1.000  H
  H62      1.0000 0.43891  0.54663  0.56029  Biso   1.000  H
  H63      1.0000 0.45346  0.89235  0.56035  Biso   1.000  H
  H64      1.0000 0.89437  0.77430  0.10639  Biso   1.000  H
  H65      1.0000 0.87996  0.10558  0.10639  Biso   1.000  H
  H66      1.0000 0.22569  0.12012  0.10633  Biso   1.000  H
  H67      1.0000 0.77431  0.89438  0.89362  Biso   1.000  H
  H68      1.0000 0.10557  0.87996  0.89362  Biso   1.000  H
  H69      1.0000 0.12012  0.22568  0.89368  Biso   1.000  H
  H70      1.0000 0.56105  0.10764  0.43972  Biso   1.000  H
  H71      1.0000 0.54663  0.43891  0.43972  Biso   1.000  H
  H72      1.0000 0.89235  0.45346  0.43966  Biso   1.000  H
  C109     1.0000 0.35216  0.25261  0.29133  Biso   1.000  C
  C110     1.0000 0.74741  0.09957  0.29126  Biso   1.000  C
  C111     1.0000 0.90048  0.64789  0.29124  Biso   1.000  C
  C112     1.0000 0.25261  0.35216  0.70869  Biso   1.000  C
  C113     1.0000 0.09956  0.74741  0.70877  Biso   1.000  C
  C114     1.0000 0.64789  0.90048  0.70878  Biso   1.000  C
  C115     1.0000 0.01883  0.58594  0.62467  Biso   1.000  C
  C116     1.0000 0.41408  0.43290  0.62459  Biso   1.000  C
  C117     1.0000 0.56714  0.98122  0.62458  Biso   1.000  C
  C118     1.0000 0.91927  0.68549  0.04202  Biso   1.000  C
  C119     1.0000 0.76623  0.08074  0.04210  Biso   1.000  C
  C120     1.0000 0.31455  0.23381  0.04211  Biso   1.000  C
  C121     1.0000 0.68549  0.91927  0.95800  Biso   1.000  C
  C122     1.0000 0.08074  0.76624  0.95793  Biso   1.000  C
  C123     1.0000 0.23381  0.31455  0.95791  Biso   1.000  C
  C124     1.0000 0.58594  0.01883  0.37535  Biso   1.000  C
  C125     1.0000 0.43290  0.41408  0.37543  Biso   1.000  C
  C126     1.0000 0.98122  0.56714  0.37544  Biso   1.000  C
  C127     1.0000 0.29543  0.96210  0.33334  Biso   1.000  C
  C128     1.0000 0.03786  0.33329  0.33334  Biso   1.000  C
  C129     1.0000 0.66662  0.70452  0.33335  Biso   1.000  C
  C130     1.0000 0.96210  0.29543  0.66667  Biso   1.000  C
  C131     1.0000 0.33328  0.03785  0.66668  Biso   1.000  C
  C132     1.0000 0.70452  0.66662  0.66666  Biso   1.000  C
  C133     1.0000 0.62876  0.62876  0.00001  Biso   1.000  C
  C134     1.0000 0.99995  0.37119  0.00002  Biso   1.000  C
  C135     1.0000 0.37119  0.99996  1.00000  Biso   1.000  C
  C136     1.0000 0.25145  0.94844  0.25459  Biso   1.000  C
  C137     1.0000 0.05149  0.30299  0.25454  Biso   1.000  C
  C138     1.0000 0.69690  0.74854  0.25465  Biso   1.000  C
  C139     1.0000 0.94847  0.25147  0.74545  Biso   1.000  C
  C140     1.0000 0.30298  0.05146  0.74550  Biso   1.000  C
  C141     1.0000 0.74853  0.69690  0.74538  Biso   1.000  C
  C142     1.0000 0.91812  0.28178  0.58792  Biso   1.000  C
  C143     1.0000 0.71813  0.63632  0.58785  Biso   1.000  C
  C144     1.0000 0.36357  0.08187  0.58798  Biso   1.000  C
  C145     1.0000 0.61513  0.58480  0.07878  Biso   1.000  C
  C146     1.0000 0.96965  0.38479  0.07883  Biso   1.000  C
  C147     1.0000 0.41519  0.03024  0.07872  Biso   1.000  C
  C148     1.0000 0.58478  0.61511  0.92125  Biso   1.000  C
  C149     1.0000 0.38481  0.96966  0.92120  Biso   1.000  C
  C150     1.0000 0.03023  0.41521  0.92131  Biso   1.000  C
  C151     1.0000 0.28181  0.91814  0.41212  Biso   1.000  C
  C152     1.0000 0.63631  0.71812  0.41217  Biso   1.000  C
  C153     1.0000 0.08186  0.36358  0.41206  Biso   1.000  C
  H73      1.0000 0.26273  0.98292  0.19400  Biso   1.000  H
  H74      1.0000 0.01697  0.27982  0.19399  Biso   1.000  H
  H75      1.0000 0.72006  0.73727  0.19400  Biso   1.000  H
  H76      1.0000 0.98297  0.26277  0.80601  Biso   1.000  H
  H77      1.0000 0.27980  0.01692  0.80602  Biso   1.000  H
  H78      1.0000 0.73725  0.72007  0.80601  Biso   1.000  H
  H79      1.0000 0.92941  0.31627  0.52733  Biso   1.000  H
  H80      1.0000 0.68361  0.61314  0.52732  Biso   1.000  H
  H81      1.0000 0.38673  0.07060  0.52733  Biso   1.000  H
  H82      1.0000 0.64964  0.59610  0.13934  Biso   1.000  H
  H83      1.0000 0.94647  0.35026  0.13935  Biso   1.000  H
  H84      1.0000 0.40391  0.05341  0.13934  Biso   1.000  H
  H85      1.0000 0.59607  0.64960  0.86066  Biso   1.000  H
  H86      1.0000 0.35030  0.94648  0.86066  Biso   1.000  H
  H87      1.0000 0.05340  0.40394  0.86067  Biso   1.000  H
  H88      1.0000 0.31632  0.92945  0.47268  Biso   1.000  H
  H89      1.0000 0.61313  0.68358  0.47269  Biso   1.000  H
  H90      1.0000 0.07057  0.38674  0.47268  Biso   1.000  H
  C154     1.0000 0.19484  0.89103  0.25377  Biso   1.000  C
  C155     1.0000 0.10891  0.30381  0.25357  Biso   1.000  C
  C156     1.0000 0.69612  0.80518  0.25395  Biso   1.000  C
  C157     1.0000 0.89106  0.19487  0.74633  Biso   1.000  C
  C158     1.0000 0.30380  0.10888  0.74652  Biso   1.000  C
  C159     1.0000 0.80516  0.69612  0.74611  Biso   1.000  C
  C160     1.0000 0.86151  0.22438  0.58707  Biso   1.000  C
  C161     1.0000 0.77556  0.63714  0.58686  Biso   1.000  C
  C162     1.0000 0.36279  0.13851  0.58727  Biso   1.000  C
  C163     1.0000 0.55773  0.52820  0.07967  Biso   1.000  C
  C164     1.0000 0.97047  0.44222  0.07986  Biso   1.000  C
  C165     1.0000 0.47183  0.02946  0.07947  Biso   1.000  C
  C166     1.0000 0.52818  0.55771  0.92041  Biso   1.000  C
  C167     1.0000 0.44224  0.97047  0.92022  Biso   1.000  C
  C168     1.0000 0.02946  0.47184  0.92061  Biso   1.000  C
  C169     1.0000 0.22441  0.86154  0.41303  Biso   1.000  C
  C170     1.0000 0.63713  0.77554  0.41321  Biso   1.000  C
  C171     1.0000 0.13849  0.36280  0.41282  Biso   1.000  C
  H91      1.0000 0.16143  0.87942  0.19107  Biso   1.000  H
  H92      1.0000 0.12050  0.28203  0.19083  Biso   1.000  H
  H93      1.0000 0.71789  0.83861  0.19128  Biso   1.000  H
  H94      1.0000 0.87946  0.16147  0.80906  Biso   1.000  H
  H95      1.0000 0.28202  0.12046  0.80928  Biso   1.000  H
  H96      1.0000 0.83859  0.71789  0.80880  Biso   1.000  H
  H97      1.0000 0.82811  0.21277  0.52436  Biso   1.000  H
  H98      1.0000 0.78715  0.61536  0.52411  Biso   1.000  H
  H99      1.0000 0.38456  0.17194  0.52460  Biso   1.000  H
  H100     1.0000 0.54613  0.49480  0.14240  Biso   1.000  H
  H101     1.0000 0.94869  0.45380  0.14261  Biso   1.000  H
  H102     1.0000 0.50525  0.05123  0.14216  Biso   1.000  H
  H103     1.0000 0.49477  0.54610  0.85770  Biso   1.000  H
  H104     1.0000 0.45383  0.94870  0.85748  Biso   1.000  H
  H105     1.0000 0.05123  0.50528  0.85793  Biso   1.000  H
  H106     1.0000 0.21281  0.82815  0.47576  Biso   1.000  H
  H107     1.0000 0.61535  0.78712  0.47597  Biso   1.000  H
  H108     1.0000 0.17191  0.38457  0.47552  Biso   1.000  H
  C172     1.0000 0.18057  0.84723  0.33343  Biso   1.000  C
  C173     1.0000 0.15278  0.33333  0.33312  Biso   1.000  C
  C174     1.0000 0.66666  0.81944  0.33370  Biso   1.000  C
  C175     1.0000 0.84723  0.18057  0.66672  Biso   1.000  C
  C176     1.0000 0.33333  0.15278  0.66701  Biso   1.000  C
  C177     1.0000 0.81944  0.66666  0.66639  Biso   1.000  C
  C178     1.0000 0.51389  0.51390  0.00006  Biso   1.000  C
  C179     1.0000 1.00000  0.48612  0.00034  Biso   1.000  C
  C180     1.0000 0.48612  1.00000  0.99977  Biso   1.000  C
  C181     1.0000 0.11936  0.78604  0.33352  Biso   1.000  C
  C182     1.0000 0.21403  0.33339  0.33292  Biso   1.000  C
  C183     1.0000 0.66674  0.88070  0.33402  Biso   1.000  C
  C184     1.0000 0.78603  0.11937  0.66677  Biso   1.000  C
  C185     1.0000 0.33341  0.21404  0.66732  Biso   1.000  C
  C186     1.0000 0.88070  0.66673  0.66614  Biso   1.000  C
  C187     1.0000 0.45269  0.45270  0.00012  Biso   1.000  C
  C188     1.0000 0.00008  0.54738  0.00065  Biso   1.000  C
  C189     1.0000 0.54737  0.00006  0.99955  Biso   1.000  C
