data_image0
_cell_length_a       20.6144
_cell_length_b       19.3608
_cell_length_c       8.22029
_cell_angle_alpha    90.0015
_cell_angle_beta     112.549
_cell_angle_gamma    89.9978

_symmetry_space_group_name_H-M    "P 1"
_symmetry_int_tables_number       1

loop_
  _symmetry_equiv_pos_as_xyz
  'x, y, z'

loop_
  _atom_site_label
  _atom_site_occupancy
  _atom_site_fract_x
  _atom_site_fract_y
  _atom_site_fract_z
  _atom_site_thermal_displace_type
  _atom_site_B_iso_or_equiv
  _atom_site_type_symbol
  N1       1.0000 0.17142  0.14233  0.12469  Biso   1.000  N
  N2       1.0000 0.82843  0.14229  0.37517  Biso   1.000  N
  N3       1.0000 0.67142  0.64234  0.12476  Biso   1.000  N
  N4       1.0000 0.32844  0.64231  0.37509  Biso   1.000  N
  N5       1.0000 0.82844  0.85770  0.87518  Biso   1.000  N
  N6       1.0000 0.17144  0.85768  0.62469  Biso   1.000  N
  N7       1.0000 0.32845  0.35769  0.87512  Biso   1.000  N
  N8       1.0000 0.67145  0.35768  0.62476  Biso   1.000  N
  O1       1.0000 0.16390  0.02779  0.61138  Biso   1.000  O
  O2       1.0000 0.83598  0.02778  0.88845  Biso   1.000  O
  O3       1.0000 0.66392  0.52778  0.61147  Biso   1.000  O
  O4       1.0000 0.33598  0.52777  0.88841  Biso   1.000  O
  O5       1.0000 0.83598  0.97223  0.38846  Biso   1.000  O
  O6       1.0000 0.16390  0.97221  0.11138  Biso   1.000  O
  O7       1.0000 0.33598  0.47223  0.38843  Biso   1.000  O
  O8       1.0000 0.66393  0.47222  0.11147  Biso   1.000  O
  O9       1.0000 0.99761  0.12216  0.54883  Biso   1.000  O
  O10      1.0000 0.00226  0.12217  0.95109  Biso   1.000  O
  O11      1.0000 0.49762  0.62215  0.54877  Biso   1.000  O
  O12      1.0000 0.50226  0.62218  0.95109  Biso   1.000  O
  O13      1.0000 0.00228  0.87784  0.45109  Biso   1.000  O
  O14      1.0000 0.99761  0.87785  0.04883  Biso   1.000  O
  O15      1.0000 0.50229  0.37783  0.45110  Biso   1.000  O
  O16      1.0000 0.49763  0.37786  0.04876  Biso   1.000  O
  O17      1.0000 0.09489  0.18145  0.70958  Biso   1.000  O
  O18      1.0000 0.90497  0.18146  0.79032  Biso   1.000  O
  O19      1.0000 0.59487  0.68147  0.70957  Biso   1.000  O
  O20      1.0000 0.40500  0.68149  0.79024  Biso   1.000  O
  O21      1.0000 0.90498  0.81856  0.29032  Biso   1.000  O
  O22      1.0000 0.09490  0.81856  0.20955  Biso   1.000  O
  O23      1.0000 0.40502  0.31853  0.29025  Biso   1.000  O
  O24      1.0000 0.59489  0.31854  0.20954  Biso   1.000  O
  O25      1.0000 0.22810  0.08310  0.85969  Biso   1.000  O
  O26      1.0000 0.77176  0.08311  0.64018  Biso   1.000  O
  O27      1.0000 0.72812  0.58309  0.85979  Biso   1.000  O
  O28      1.0000 0.27176  0.58308  0.64011  Biso   1.000  O
  O29      1.0000 0.77178  0.91690  0.14019  Biso   1.000  O
  O30      1.0000 0.22811  0.91691  0.35970  Biso   1.000  O
  O31      1.0000 0.27179  0.41692  0.14013  Biso   1.000  O
  O32      1.0000 0.72814  0.41692  0.35979  Biso   1.000  O
  C1       1.0000 0.14999  0.14012  0.26007  Biso   1.000  C
  C2       1.0000 0.84987  0.14006  0.23979  Biso   1.000  C
  C3       1.0000 0.65000  0.64011  0.26016  Biso   1.000  C
  C4       1.0000 0.34987  0.64007  0.23972  Biso   1.000  C
  C5       1.0000 0.84987  0.85993  0.73979  Biso   1.000  C
  C6       1.0000 0.14999  0.85990  0.76006  Biso   1.000  C
  C7       1.0000 0.34988  0.35992  0.73972  Biso   1.000  C
  C8       1.0000 0.65001  0.35990  0.76014  Biso   1.000  C
  H1       1.0000 0.10680  0.10519  0.24590  Biso   1.000  H
  H2       1.0000 0.89303  0.10510  0.25394  Biso   1.000  H
  H3       1.0000 0.60682  0.60517  0.24599  Biso   1.000  H
  H4       1.0000 0.39303  0.60511  0.25387  Biso   1.000  H
  H5       1.0000 0.89302  0.89489  0.75393  Biso   1.000  H
  H6       1.0000 0.10681  0.89483  0.74588  Biso   1.000  H
  H7       1.0000 0.39304  0.39488  0.75387  Biso   1.000  H
  H8       1.0000 0.60684  0.39485  0.74598  Biso   1.000  H
  C9       1.0000 0.03276  0.17790  0.58790  Biso   1.000  C
  C10      1.0000 0.96711  0.17791  0.91197  Biso   1.000  C
  C11      1.0000 0.53275  0.67791  0.58785  Biso   1.000  C
  C12      1.0000 0.46712  0.67793  0.91194  Biso   1.000  C
  C13      1.0000 0.96712  0.82210  0.41198  Biso   1.000  C
  C14      1.0000 0.03277  0.82211  0.08788  Biso   1.000  C
  C15      1.0000 0.46714  0.32208  0.41196  Biso   1.000  C
  C16      1.0000 0.53277  0.32210  0.08784  Biso   1.000  C
  C17      1.0000 0.22284  0.05077  0.71914  Biso   1.000  C
  C18      1.0000 0.77703  0.05076  0.78070  Biso   1.000  C
  C19      1.0000 0.72286  0.55076  0.71925  Biso   1.000  C
  C20      1.0000 0.27703  0.55074  0.78064  Biso   1.000  C
  C21      1.0000 0.77704  0.94925  0.28071  Biso   1.000  C
  C22      1.0000 0.22284  0.94923  0.21914  Biso   1.000  C
  C23      1.0000 0.27704  0.44926  0.28065  Biso   1.000  C
  C24      1.0000 0.72287  0.44925  0.21925  Biso   1.000  C
  C25      1.0000 0.22400  0.18583  0.13614  Biso   1.000  C
  C26      1.0000 0.77588  0.18583  0.36373  Biso   1.000  C
  C27      1.0000 0.72399  0.68585  0.13620  Biso   1.000  C
  C28      1.0000 0.27588  0.68584  0.36366  Biso   1.000  C
  C29      1.0000 0.77589  0.81417  0.86376  Biso   1.000  C
  C30      1.0000 0.22401  0.81418  0.63616  Biso   1.000  C
  C31      1.0000 0.27590  0.31416  0.86369  Biso   1.000  C
  C32      1.0000 0.72401  0.31416  0.63622  Biso   1.000  C
  H9       1.0000 0.24129  0.18431  0.02672  Biso   1.000  H
  H10      1.0000 0.75858  0.18431  0.47313  Biso   1.000  H
  H11      1.0000 0.74128  0.68433  0.02679  Biso   1.000  H
  H12      1.0000 0.25858  0.68432  0.47307  Biso   1.000  H
  H13      1.0000 0.75860  0.81568  0.97317  Biso   1.000  H
  H14      1.0000 0.24131  0.81571  0.52675  Biso   1.000  H
  H15      1.0000 0.25861  0.31567  0.97310  Biso   1.000  H
  H16      1.0000 0.74131  0.31568  0.52681  Biso   1.000  H
  C33      1.0000 0.25567  0.22924  0.27967  Biso   1.000  C
  C34      1.0000 0.74423  0.22926  0.22022  Biso   1.000  C
  C35      1.0000 0.75565  0.72926  0.27973  Biso   1.000  C
  C36      1.0000 0.24424  0.72927  0.22015  Biso   1.000  C
  C37      1.0000 0.74424  0.77074  0.72025  Biso   1.000  C
  C38      1.0000 0.25568  0.77077  0.77969  Biso   1.000  C
  C39      1.0000 0.24425  0.27073  0.72017  Biso   1.000  C
  C40      1.0000 0.75568  0.27074  0.77975  Biso   1.000  C
  H17      1.0000 0.29780  0.26303  0.27892  Biso   1.000  H
  H18      1.0000 0.70212  0.26307  0.22098  Biso   1.000  H
  H19      1.0000 0.79777  0.76307  0.27897  Biso   1.000  H
  H20      1.0000 0.20213  0.76309  0.22092  Biso   1.000  H
  H21      1.0000 0.70213  0.73693  0.72102  Biso   1.000  H
  H22      1.0000 0.29782  0.73698  0.77894  Biso   1.000  H
  H23      1.0000 0.20214  0.23691  0.72095  Biso   1.000  H
  H24      1.0000 0.79780  0.23694  0.77898  Biso   1.000  H
  C41      1.0000 0.23375  0.22741  0.42191  Biso   1.000  C
  C42      1.0000 0.76616  0.22740  0.07799  Biso   1.000  C
  C43      1.0000 0.73374  0.72741  0.42199  Biso   1.000  C
  C44      1.0000 0.26615  0.72741  0.07791  Biso   1.000  C
  C45      1.0000 0.76616  0.77260  0.57800  Biso   1.000  C
  C46      1.0000 0.23375  0.77260  0.92191  Biso   1.000  C
  C47      1.0000 0.26616  0.27259  0.57791  Biso   1.000  C
  C48      1.0000 0.73376  0.27260  0.92199  Biso   1.000  C
  C49      1.0000 0.17993  0.18060  0.41008  Biso   1.000  C
  C50      1.0000 0.81995  0.18056  0.08980  Biso   1.000  C
  C51      1.0000 0.67994  0.68059  0.41017  Biso   1.000  C
  C52      1.0000 0.31994  0.68057  0.08971  Biso   1.000  C
  C53      1.0000 0.81994  0.81944  0.58980  Biso   1.000  C
  C54      1.0000 0.17993  0.81941  0.91007  Biso   1.000  C
  C55      1.0000 0.31995  0.31943  0.58971  Biso   1.000  C
  C56      1.0000 0.67995  0.31942  0.91016  Biso   1.000  C
  H25      1.0000 0.16060  0.17472  0.51525  Biso   1.000  H
  H26      1.0000 0.83927  0.17466  0.98462  Biso   1.000  H
  H27      1.0000 0.66062  0.67470  0.51536  Biso   1.000  H
  H28      1.0000 0.33927  0.67466  0.98453  Biso   1.000  H
  H29      1.0000 0.83926  0.82533  0.48460  Biso   1.000  H
  H30      1.0000 0.16059  0.82529  0.01523  Biso   1.000  H
  H31      1.0000 0.33927  0.32533  0.48452  Biso   1.000  H
  H32      1.0000 0.66062  0.32531  0.01533  Biso   1.000  H
  C57      1.0000 0.00027  0.24376  0.48909  Biso   1.000  C
  C58      1.0000 0.99961  0.24378  0.01066  Biso   1.000  C
  C59      1.0000 0.50025  0.74376  0.48901  Biso   1.000  C
  C60      1.0000 0.49963  0.74380  0.01065  Biso   1.000  C
  C61      1.0000 0.99962  0.75622  0.51069  Biso   1.000  C
  C62      1.0000 0.00027  0.75625  0.98910  Biso   1.000  C
  C63      1.0000 0.49964  0.25621  0.51068  Biso   1.000  C
  C64      1.0000 0.50026  0.25625  0.98904  Biso   1.000  C
  H33      1.0000 0.96925  0.22897  0.35213  Biso   1.000  H
  H34      1.0000 0.03065  0.22901  0.14761  Biso   1.000  H
  H35      1.0000 0.46925  0.72897  0.35205  Biso   1.000  H
  H36      1.0000 0.53068  0.72904  0.14760  Biso   1.000  H
  H37      1.0000 0.03066  0.77099  0.64764  Biso   1.000  H
  H38      1.0000 0.96925  0.77103  0.85214  Biso   1.000  H
  H39      1.0000 0.53069  0.27096  0.64764  Biso   1.000  H
  H40      1.0000 0.46925  0.27102  0.85207  Biso   1.000  H
  H41      1.0000 0.96142  0.26090  0.54273  Biso   1.000  H
  H42      1.0000 0.03843  0.26091  0.95692  Biso   1.000  H
  H43      1.0000 0.46140  0.76090  0.54262  Biso   1.000  H
  H44      1.0000 0.53844  0.76093  0.95689  Biso   1.000  H
  H45      1.0000 0.03843  0.73908  0.45695  Biso   1.000  H
  H46      1.0000 0.96143  0.73913  0.04276  Biso   1.000  H
  H47      1.0000 0.53845  0.23906  0.45693  Biso   1.000  H
  H48      1.0000 0.46142  0.23912  0.04267  Biso   1.000  H
  C65      1.0000 0.28844  0.04007  0.68083  Biso   1.000  C
  C66      1.0000 0.71143  0.04004  0.81901  Biso   1.000  C
  C67      1.0000 0.78846  0.54005  0.68094  Biso   1.000  C
  C68      1.0000 0.21143  0.54003  0.81895  Biso   1.000  C
  C69      1.0000 0.71143  0.95997  0.31901  Biso   1.000  C
  C70      1.0000 0.28844  0.95994  0.18082  Biso   1.000  C
  C71      1.0000 0.21144  0.45998  0.31894  Biso   1.000  C
  C72      1.0000 0.78846  0.45996  0.18092  Biso   1.000  C
  H49      1.0000 0.28889  0.98572  0.64213  Biso   1.000  H
  H50      1.0000 0.71099  0.98568  0.85765  Biso   1.000  H
  H51      1.0000 0.78889  0.48571  0.64217  Biso   1.000  H
  H52      1.0000 0.21097  0.48568  0.85761  Biso   1.000  H
  H53      1.0000 0.71099  0.01432  0.35768  Biso   1.000  H
  H54      1.0000 0.28888  0.01429  0.14213  Biso   1.000  H
  H55      1.0000 0.21098  0.51433  0.35762  Biso   1.000  H
  H56      1.0000 0.78889  0.51430  0.14216  Biso   1.000  H
  H57      1.0000 0.28117  0.06967  0.56051  Biso   1.000  H
  H58      1.0000 0.71872  0.06961  0.93938  Biso   1.000  H
  H59      1.0000 0.78118  0.56967  0.56063  Biso   1.000  H
  H60      1.0000 0.21872  0.56961  0.93931  Biso   1.000  H
  H61      1.0000 0.71871  0.93038  0.43935  Biso   1.000  H
  H62      1.0000 0.28117  0.93035  0.06049  Biso   1.000  H
  H63      1.0000 0.21873  0.43039  0.43929  Biso   1.000  H
  H64      1.0000 0.78118  0.43034  0.06062  Biso   1.000  H
  C73      1.0000 0.35693  0.06032  0.83158  Biso   1.000  C
  C74      1.0000 0.64293  0.06031  0.66832  Biso   1.000  C
  C75      1.0000 0.85696  0.56030  0.83166  Biso   1.000  C
  C76      1.0000 0.14293  0.56032  0.66827  Biso   1.000  C
  C77      1.0000 0.64293  0.93970  0.16829  Biso   1.000  C
  C78      1.0000 0.35694  0.93969  0.33154  Biso   1.000  C
  C79      1.0000 0.14294  0.43969  0.16824  Biso   1.000  C
  C80      1.0000 0.85697  0.43971  0.33162  Biso   1.000  C
  H65      1.0000 0.36034  0.03296  0.95154  Biso   1.000  H
  H66      1.0000 0.63953  0.03301  0.54830  Biso   1.000  H
  H67      1.0000 0.86038  0.53296  0.95165  Biso   1.000  H
  H68      1.0000 0.13952  0.53303  0.54823  Biso   1.000  H
  H69      1.0000 0.63953  0.96702  0.04828  Biso   1.000  H
  H70      1.0000 0.36034  0.96704  0.45151  Biso   1.000  H
  H71      1.0000 0.13953  0.46699  0.04820  Biso   1.000  H
  H72      1.0000 0.86039  0.46705  0.45162  Biso   1.000  H
  H73      1.0000 0.35531  0.11545  0.86140  Biso   1.000  H
  H74      1.0000 0.64454  0.11546  0.63865  Biso   1.000  H
  H75      1.0000 0.85532  0.61543  0.86142  Biso   1.000  H
  H76      1.0000 0.14455  0.61547  0.63864  Biso   1.000  H
  H77      1.0000 0.64455  0.88456  0.13859  Biso   1.000  H
  H78      1.0000 0.35532  0.88456  0.36135  Biso   1.000  H
  H79      1.0000 0.14457  0.38454  0.13859  Biso   1.000  H
  H80      1.0000 0.85535  0.38458  0.36138  Biso   1.000  H
  C81      1.0000 0.05150  0.30238  0.49716  Biso   1.000  C
  C82      1.0000 0.94837  0.30241  0.00260  Biso   1.000  C
  C83      1.0000 0.55149  0.80238  0.49708  Biso   1.000  C
  C84      1.0000 0.44839  0.80243  0.00258  Biso   1.000  C
  C85      1.0000 0.94837  0.69761  0.50264  Biso   1.000  C
  C86      1.0000 0.05150  0.69762  0.99718  Biso   1.000  C
  C87      1.0000 0.44839  0.19759  0.50262  Biso   1.000  C
  C88      1.0000 0.55150  0.19762  0.99711  Biso   1.000  C
  H81      1.0000 0.02395  0.33892  0.39086  Biso   1.000  H
  H82      1.0000 0.97590  0.33897  0.10886  Biso   1.000  H
  H83      1.0000 0.52396  0.83891  0.39075  Biso   1.000  H
  H84      1.0000 0.47593  0.83899  0.10883  Biso   1.000  H
  H85      1.0000 0.97591  0.66106  0.60892  Biso   1.000  H
  H86      1.0000 0.02395  0.66108  0.89090  Biso   1.000  H
  H87      1.0000 0.47594  0.16104  0.60888  Biso   1.000  H
  H88      1.0000 0.52396  0.16108  0.89080  Biso   1.000  H
  H89      1.0000 0.09496  0.28166  0.46586  Biso   1.000  H
  H90      1.0000 0.90493  0.28168  0.03393  Biso   1.000  H
  H91      1.0000 0.59496  0.78164  0.46585  Biso   1.000  H
  H92      1.0000 0.40494  0.78171  0.03392  Biso   1.000  H
  H93      1.0000 0.90492  0.71835  0.53395  Biso   1.000  H
  H94      1.0000 0.09496  0.71833  0.96587  Biso   1.000  H
  H95      1.0000 0.40494  0.21832  0.53394  Biso   1.000  H
  H96      1.0000 0.59497  0.21834  0.96587  Biso   1.000  H
  C89      1.0000 0.42163  0.04439  0.79000  Biso   1.000  C
  C90      1.0000 0.57821  0.04434  0.70981  Biso   1.000  C
  C91      1.0000 0.92167  0.54438  0.79010  Biso   1.000  C
  C92      1.0000 0.07821  0.54435  0.70975  Biso   1.000  C
  C93      1.0000 0.57822  0.95566  0.20979  Biso   1.000  C
  C94      1.0000 0.42163  0.95563  0.28997  Biso   1.000  C
  C95      1.0000 0.07822  0.45565  0.20973  Biso   1.000  C
  C96      1.0000 0.92167  0.45564  0.29006  Biso   1.000  C
  H97      1.0000 0.47038  0.05817  0.90046  Biso   1.000  H
  H98      1.0000 0.52948  0.05815  0.59934  Biso   1.000  H
  H99      1.0000 0.97040  0.55815  0.90060  Biso   1.000  H
  H100     1.0000 0.02948  0.55818  0.59929  Biso   1.000  H
  H101     1.0000 0.52949  0.94186  0.09931  Biso   1.000  H
  H102     1.0000 0.47038  0.94184  0.40042  Biso   1.000  H
  H103     1.0000 0.02950  0.44183  0.09925  Biso   1.000  H
  H104     1.0000 0.97041  0.44187  0.40056  Biso   1.000  H
  H105     1.0000 0.42059  0.07289  0.67354  Biso   1.000  H
  H106     1.0000 0.57924  0.07280  0.82630  Biso   1.000  H
  H107     1.0000 0.92064  0.57289  0.67368  Biso   1.000  H
  H108     1.0000 0.07923  0.57281  0.82626  Biso   1.000  H
  H109     1.0000 0.57924  0.92719  0.32626  Biso   1.000  H
  H110     1.0000 0.42060  0.92713  0.17351  Biso   1.000  H
  H111     1.0000 0.07924  0.42718  0.32622  Biso   1.000  H
  H112     1.0000 0.92065  0.42713  0.17364  Biso   1.000  H
  H113     1.0000 0.42488  0.98925  0.76286  Biso   1.000  H
  H114     1.0000 0.57495  0.98919  0.73681  Biso   1.000  H
  H115     1.0000 0.92492  0.48924  0.76294  Biso   1.000  H
  H116     1.0000 0.07494  0.48920  0.73673  Biso   1.000  H
  H117     1.0000 0.57495  0.01081  0.23683  Biso   1.000  H
  H118     1.0000 0.42488  0.01077  0.26285  Biso   1.000  H
  H119     1.0000 0.07494  0.51080  0.23672  Biso   1.000  H
  H120     1.0000 0.92492  0.51078  0.26292  Biso   1.000  H
  C97      1.0000 0.08070  0.34148  0.67240  Biso   1.000  C
  C98      1.0000 0.91917  0.34148  0.82732  Biso   1.000  C
  C99      1.0000 0.58067  0.84149  0.67231  Biso   1.000  C
  C100     1.0000 0.41919  0.84150  0.82730  Biso   1.000  C
  C101     1.0000 0.91917  0.65853  0.32736  Biso   1.000  C
  C102     1.0000 0.08070  0.65853  0.17244  Biso   1.000  C
  C103     1.0000 0.41920  0.15852  0.32734  Biso   1.000  C
  C104     1.0000 0.58068  0.15852  0.17235  Biso   1.000  C
  H121     1.0000 0.11956  0.38035  0.67259  Biso   1.000  H
  H122     1.0000 0.88031  0.38036  0.82703  Biso   1.000  H
  H123     1.0000 0.61952  0.88037  0.67250  Biso   1.000  H
  H124     1.0000 0.38033  0.88038  0.82702  Biso   1.000  H
  H125     1.0000 0.88031  0.61966  0.32708  Biso   1.000  H
  H126     1.0000 0.11955  0.61965  0.17265  Biso   1.000  H
  H127     1.0000 0.38033  0.11965  0.32707  Biso   1.000  H
  H128     1.0000 0.61952  0.11963  0.17257  Biso   1.000  H
  H129     1.0000 0.10630  0.30621  0.78287  Biso   1.000  H
  H130     1.0000 0.89359  0.30618  0.71689  Biso   1.000  H
  H131     1.0000 0.60626  0.80622  0.78278  Biso   1.000  H
  H132     1.0000 0.39361  0.80620  0.71688  Biso   1.000  H
  H133     1.0000 0.89359  0.69382  0.21693  Biso   1.000  H
  H134     1.0000 0.10631  0.69381  0.28289  Biso   1.000  H
  H135     1.0000 0.39362  0.19381  0.21691  Biso   1.000  H
  H136     1.0000 0.60628  0.19379  0.28280  Biso   1.000  H
  H137     1.0000 0.03857  0.36850  0.69727  Biso   1.000  H
  H138     1.0000 0.96130  0.36847  0.80244  Biso   1.000  H
  H139     1.0000 0.53852  0.86850  0.69713  Biso   1.000  H
  H140     1.0000 0.46133  0.86849  0.80243  Biso   1.000  H
  H141     1.0000 0.96131  0.63152  0.30251  Biso   1.000  H
  H142     1.0000 0.03857  0.63153  0.19733  Biso   1.000  H
  H143     1.0000 0.46134  0.13151  0.30249  Biso   1.000  H
  H144     1.0000 0.53854  0.13152  0.19720  Biso   1.000  H
  Pb1      1.0000 0.10904  0.06880  0.85195  Biso   1.000  Pb
  Pb2      1.0000 0.89084  0.06879  0.64797  Biso   1.000  Pb
  Pb3      1.0000 0.60905  0.56881  0.85199  Biso   1.000  Pb
  Pb4      1.0000 0.39084  0.56881  0.64789  Biso   1.000  Pb
  Pb5      1.0000 0.89084  0.93122  0.14797  Biso   1.000  Pb
  Pb6      1.0000 0.10904  0.93121  0.35194  Biso   1.000  Pb
  Pb7      1.0000 0.39085  0.43120  0.14789  Biso   1.000  Pb
  Pb8      1.0000 0.60906  0.43119  0.35198  Biso   1.000  Pb
