data_image0
_cell_length_a       23.9307
_cell_length_b       10.9055
_cell_length_c       15.4367
_cell_angle_alpha    90.0001
_cell_angle_beta     126.182
_cell_angle_gamma    89.9995

_symmetry_space_group_name_H-M    "P 1"
_symmetry_int_tables_number       1

loop_
  _symmetry_equiv_pos_as_xyz
  'x, y, z'

loop_
  _atom_site_label
  _atom_site_occupancy
  _atom_site_fract_x
  _atom_site_fract_y
  _atom_site_fract_z
  _atom_site_thermal_displace_type
  _atom_site_B_iso_or_equiv
  _atom_site_type_symbol
  Ag1      1.0000 0.16587  0.64291  0.11757  Biso   1.000  Ag
  Ag2      1.0000 0.83412  0.64292  0.38245  Biso   1.000  Ag
  Ag3      1.0000 0.66587  0.14291  0.11757  Biso   1.000  Ag
  Ag4      1.0000 0.33412  0.14292  0.38245  Biso   1.000  Ag
  Ag5      1.0000 0.83412  0.35707  0.88246  Biso   1.000  Ag
  Ag6      1.0000 0.16587  0.35708  0.61757  Biso   1.000  Ag
  Ag7      1.0000 0.33412  0.85707  0.88245  Biso   1.000  Ag
  Ag8      1.0000 0.66587  0.85708  0.61757  Biso   1.000  Ag
  S1       1.0000 0.23150  0.29040  0.13643  Biso   1.000  S
  S2       1.0000 0.76849  0.29039  0.36358  Biso   1.000  S
  S3       1.0000 0.73150  0.79040  0.13643  Biso   1.000  S
  S4       1.0000 0.26849  0.79039  0.36358  Biso   1.000  S
  S5       1.0000 0.76849  0.70960  0.86358  Biso   1.000  S
  S6       1.0000 0.23150  0.70960  0.63644  Biso   1.000  S
  S7       1.0000 0.26849  0.20960  0.86358  Biso   1.000  S
  S8       1.0000 0.73150  0.20960  0.63644  Biso   1.000  S
  O1       1.0000 0.22397  0.17141  0.08487  Biso   1.000  O
  O2       1.0000 0.77603  0.17141  0.41514  Biso   1.000  O
  O3       1.0000 0.72397  0.67141  0.08487  Biso   1.000  O
  O4       1.0000 0.27603  0.67141  0.41514  Biso   1.000  O
  O5       1.0000 0.77603  0.82859  0.91515  Biso   1.000  O
  O6       1.0000 0.22398  0.82859  0.58489  Biso   1.000  O
  O7       1.0000 0.27603  0.32859  0.91515  Biso   1.000  O
  O8       1.0000 0.72398  0.32859  0.58489  Biso   1.000  O
  O9       1.0000 0.20529  0.39615  0.06243  Biso   1.000  O
  O10      1.0000 0.79469  0.39615  0.43757  Biso   1.000  O
  O11      1.0000 0.70529  0.89615  0.06243  Biso   1.000  O
  O12      1.0000 0.29469  0.89615  0.43757  Biso   1.000  O
  O13      1.0000 0.79469  0.60384  0.93757  Biso   1.000  O
  O14      1.0000 0.20529  0.60385  0.56242  Biso   1.000  O
  O15      1.0000 0.29469  0.10384  0.93757  Biso   1.000  O
  O16      1.0000 0.70529  0.10385  0.56242  Biso   1.000  O
  O17      1.0000 0.30300  0.31281  0.23679  Biso   1.000  O
  O18      1.0000 0.69699  0.31280  0.26321  Biso   1.000  O
  O19      1.0000 0.80300  0.81281  0.23679  Biso   1.000  O
  O20      1.0000 0.19699  0.81280  0.26321  Biso   1.000  O
  O21      1.0000 0.69699  0.68721  0.76321  Biso   1.000  O
  O22      1.0000 0.30299  0.68717  0.73680  Biso   1.000  O
  O23      1.0000 0.19699  0.18721  0.76321  Biso   1.000  O
  O24      1.0000 0.80299  0.18717  0.73680  Biso   1.000  O
  N1       1.0000 0.05701  0.57053  0.02987  Biso   1.000  N
  N2       1.0000 0.94298  0.57054  0.47015  Biso   1.000  N
  N3       1.0000 0.55701  0.07053  0.02987  Biso   1.000  N
  N4       1.0000 0.44298  0.07054  0.47015  Biso   1.000  N
  N5       1.0000 0.94298  0.42945  0.97016  Biso   1.000  N
  N6       1.0000 0.05701  0.42947  0.52988  Biso   1.000  N
  N7       1.0000 0.44298  0.92945  0.97016  Biso   1.000  N
  N8       1.0000 0.55701  0.92947  0.52988  Biso   1.000  N
  N9       1.0000 0.21801  0.71130  0.04626  Biso   1.000  N
  N10      1.0000 0.78200  0.71130  0.45378  Biso   1.000  N
  N11      1.0000 0.71801  0.21130  0.04626  Biso   1.000  N
  N12      1.0000 0.28199  0.21130  0.45378  Biso   1.000  N
  N13      1.0000 0.78200  0.28869  0.95378  Biso   1.000  N
  N14      1.0000 0.21801  0.28870  0.54626  Biso   1.000  N
  N15      1.0000 0.28200  0.78869  0.95378  Biso   1.000  N
  N16      1.0000 0.71801  0.78870  0.54626  Biso   1.000  N
  N17      1.0000 0.21505  0.48983  0.25664  Biso   1.000  N
  N18      1.0000 0.78495  0.48984  0.24338  Biso   1.000  N
  N19      1.0000 0.71505  0.98983  0.25664  Biso   1.000  N
  N20      1.0000 0.28495  0.98984  0.24338  Biso   1.000  N
  N21      1.0000 0.78496  0.51015  0.74338  Biso   1.000  N
  N22      1.0000 0.21505  0.51017  0.75665  Biso   1.000  N
  N23      1.0000 0.28496  0.01015  0.74338  Biso   1.000  N
  N24      1.0000 0.71505  0.01017  0.75665  Biso   1.000  N
  H1       1.0000 0.22749  0.54319  0.32099  Biso   1.000  H
  H2       1.0000 0.77251  0.54320  0.17903  Biso   1.000  H
  H3       1.0000 0.72749  0.04319  0.32099  Biso   1.000  H
  H4       1.0000 0.27251  0.04320  0.17903  Biso   1.000  H
  H5       1.0000 0.77252  0.45679  0.67904  Biso   1.000  H
  H6       1.0000 0.22750  0.45681  0.82100  Biso   1.000  H
  H7       1.0000 0.27252  0.95679  0.67904  Biso   1.000  H
  H8       1.0000 0.72750  0.95681  0.82100  Biso   1.000  H
  H9       1.0000 0.25900  0.46816  0.26314  Biso   1.000  H
  H10      1.0000 0.74100  0.46817  0.23688  Biso   1.000  H
  H11      1.0000 0.75900  0.96816  0.26314  Biso   1.000  H
  H12      1.0000 0.24100  0.96817  0.23688  Biso   1.000  H
  H13      1.0000 0.74100  0.53181  0.73689  Biso   1.000  H
  H14      1.0000 0.25900  0.53184  0.76312  Biso   1.000  H
  H15      1.0000 0.24100  0.03181  0.73689  Biso   1.000  H
  H16      1.0000 0.75900  0.03184  0.76312  Biso   1.000  H
  C1       1.0000 0.26497  0.64064  0.04871  Biso   1.000  C
  C2       1.0000 0.73504  0.64065  0.45133  Biso   1.000  C
  C3       1.0000 0.76497  0.14064  0.04871  Biso   1.000  C
  C4       1.0000 0.23504  0.14065  0.45133  Biso   1.000  C
  C5       1.0000 0.73504  0.35935  0.95133  Biso   1.000  C
  C6       1.0000 0.26496  0.35935  0.54871  Biso   1.000  C
  C7       1.0000 0.23504  0.85935  0.95133  Biso   1.000  C
  C8       1.0000 0.76496  0.85935  0.54871  Biso   1.000  C
  H17      1.0000 0.27502  0.55092  0.08611  Biso   1.000  H
  H18      1.0000 0.72497  0.55093  0.41392  Biso   1.000  H
  H19      1.0000 0.77502  0.05092  0.08611  Biso   1.000  H
  H20      1.0000 0.22497  0.05093  0.41392  Biso   1.000  H
  H21      1.0000 0.72497  0.44907  0.91392  Biso   1.000  H
  H22      1.0000 0.27503  0.44907  0.58612  Biso   1.000  H
  H23      1.0000 0.22497  0.94907  0.91392  Biso   1.000  H
  H24      1.0000 0.77503  0.94907  0.58612  Biso   1.000  H
  C9       1.0000 0.09548  0.17105  0.19589  Biso   1.000  C
  C10      1.0000 0.90453  0.17106  0.30414  Biso   1.000  C
  C11      1.0000 0.59548  0.67105  0.19589  Biso   1.000  C
  C12      1.0000 0.40453  0.67106  0.30414  Biso   1.000  C
  C13      1.0000 0.90453  0.82893  0.80414  Biso   1.000  C
  C14      1.0000 0.09548  0.82895  0.69589  Biso   1.000  C
  C15      1.0000 0.40453  0.32893  0.80414  Biso   1.000  C
  C16      1.0000 0.59548  0.32895  0.69589  Biso   1.000  C
  C17      1.0000 0.13910  0.17799  0.16355  Biso   1.000  C
  C18      1.0000 0.86090  0.17800  0.33647  Biso   1.000  C
  C19      1.0000 0.63910  0.67799  0.16355  Biso   1.000  C
  C20      1.0000 0.36090  0.67800  0.33647  Biso   1.000  C
  C21      1.0000 0.86090  0.82200  0.83648  Biso   1.000  C
  C22      1.0000 0.13910  0.82200  0.66355  Biso   1.000  C
  C23      1.0000 0.36090  0.32200  0.83648  Biso   1.000  C
  C24      1.0000 0.63910  0.32200  0.66355  Biso   1.000  C
  H25      1.0000 0.14338  0.10092  0.12307  Biso   1.000  H
  H26      1.0000 0.85663  0.10092  0.37695  Biso   1.000  H
  H27      1.0000 0.64338  0.60092  0.12307  Biso   1.000  H
  H28      1.0000 0.35663  0.60092  0.37695  Biso   1.000  H
  H29      1.0000 0.85663  0.89907  0.87695  Biso   1.000  H
  H30      1.0000 0.14338  0.89908  0.62308  Biso   1.000  H
  H31      1.0000 0.35663  0.39907  0.87695  Biso   1.000  H
  H32      1.0000 0.64338  0.39908  0.62308  Biso   1.000  H
  C25      1.0000 0.08953  0.27568  0.24258  Biso   1.000  C
  C26      1.0000 0.91047  0.27569  0.25745  Biso   1.000  C
  C27      1.0000 0.58953  0.77568  0.24258  Biso   1.000  C
  C28      1.0000 0.41047  0.77569  0.25745  Biso   1.000  C
  C29      1.0000 0.91047  0.72430  0.75745  Biso   1.000  C
  C30      1.0000 0.08953  0.72432  0.74258  Biso   1.000  C
  C31      1.0000 0.41047  0.22430  0.75745  Biso   1.000  C
  C32      1.0000 0.58953  0.22432  0.74258  Biso   1.000  C
  H33      1.0000 0.05472  0.27392  0.26630  Biso   1.000  H
  H34      1.0000 0.94528  0.27394  0.23373  Biso   1.000  H
  H35      1.0000 0.55472  0.77392  0.26630  Biso   1.000  H
  H36      1.0000 0.44528  0.77394  0.23373  Biso   1.000  H
  H37      1.0000 0.94529  0.72605  0.73374  Biso   1.000  H
  H38      1.0000 0.05472  0.72608  0.76631  Biso   1.000  H
  H39      1.0000 0.44529  0.22605  0.73374  Biso   1.000  H
  H40      1.0000 0.55472  0.22608  0.76631  Biso   1.000  H
  C33      1.0000 0.17776  0.28330  0.18195  Biso   1.000  C
  C34      1.0000 0.82224  0.28330  0.31806  Biso   1.000  C
  C35      1.0000 0.67776  0.78330  0.18195  Biso   1.000  C
  C36      1.0000 0.32224  0.78330  0.31806  Biso   1.000  C
  C37      1.0000 0.82224  0.71670  0.81807  Biso   1.000  C
  C38      1.0000 0.17776  0.71670  0.68195  Biso   1.000  C
  C39      1.0000 0.32224  0.21670  0.81807  Biso   1.000  C
  C40      1.0000 0.67776  0.21670  0.68195  Biso   1.000  C
  C41      1.0000 0.04799  0.45700  0.98920  Biso   1.000  C
  C42      1.0000 0.95200  0.45701  0.51082  Biso   1.000  C
  C43      1.0000 0.54799  0.95700  0.98920  Biso   1.000  C
  C44      1.0000 0.45200  0.95701  0.51082  Biso   1.000  C
  C45      1.0000 0.95200  0.54299  0.01083  Biso   1.000  C
  C46      1.0000 0.04800  0.54300  0.48921  Biso   1.000  C
  C47      1.0000 0.45200  0.04299  0.01083  Biso   1.000  C
  C48      1.0000 0.54800  0.04300  0.48921  Biso   1.000  C
  H41      1.0000 0.08827  0.42319  0.98272  Biso   1.000  H
  H42      1.0000 0.91172  0.42320  0.51729  Biso   1.000  H
  H43      1.0000 0.58827  0.92319  0.98272  Biso   1.000  H
  H44      1.0000 0.41172  0.92320  0.51729  Biso   1.000  H
  H45      1.0000 0.91172  0.57679  0.01731  Biso   1.000  H
  H46      1.0000 0.08828  0.57682  0.48273  Biso   1.000  H
  H47      1.0000 0.41172  0.07679  0.01731  Biso   1.000  H
  H48      1.0000 0.58828  0.07682  0.48273  Biso   1.000  H
  C49      1.0000 0.12766  0.38291  0.26266  Biso   1.000  C
  C50      1.0000 0.87234  0.38291  0.23737  Biso   1.000  C
  C51      1.0000 0.62766  0.88291  0.26266  Biso   1.000  C
  C52      1.0000 0.37234  0.88291  0.23737  Biso   1.000  C
  C53      1.0000 0.87234  0.61708  0.73737  Biso   1.000  C
  C54      1.0000 0.12766  0.61709  0.76266  Biso   1.000  C
  C55      1.0000 0.37234  0.11708  0.73737  Biso   1.000  C
  C56      1.0000 0.62766  0.11709  0.76266  Biso   1.000  C
  C57      1.0000 0.11987  0.49308  0.31322  Biso   1.000  C
  C58      1.0000 0.88013  0.49308  0.18681  Biso   1.000  C
  C59      1.0000 0.61987  0.99308  0.31322  Biso   1.000  C
  C60      1.0000 0.38013  0.99308  0.18681  Biso   1.000  C
  C61      1.0000 0.88013  0.50691  0.68681  Biso   1.000  C
  C62      1.0000 0.11987  0.50692  0.81322  Biso   1.000  C
  C63      1.0000 0.38013  0.00691  0.68681  Biso   1.000  C
  C64      1.0000 0.61987  0.00692  0.81322  Biso   1.000  C
  H49      1.0000 0.10683  0.57546  0.26356  Biso   1.000  H
  H50      1.0000 0.89318  0.57546  0.23647  Biso   1.000  H
  H51      1.0000 0.60683  0.07546  0.26356  Biso   1.000  H
  H52      1.0000 0.39318  0.07546  0.23647  Biso   1.000  H
  H53      1.0000 0.89318  0.42453  0.73647  Biso   1.000  H
  H54      1.0000 0.10681  0.42455  0.76355  Biso   1.000  H
  H55      1.0000 0.39318  0.92453  0.73647  Biso   1.000  H
  H56      1.0000 0.60681  0.92455  0.76355  Biso   1.000  H
  H57      1.0000 0.16746  0.51597  0.39243  Biso   1.000  H
  H58      1.0000 0.83254  0.51597  0.10760  Biso   1.000  H
  H59      1.0000 0.66746  0.01597  0.39243  Biso   1.000  H
  H60      1.0000 0.33254  0.01597  0.10760  Biso   1.000  H
  H61      1.0000 0.83254  0.48401  0.60760  Biso   1.000  H
  H62      1.0000 0.16747  0.48401  0.89242  Biso   1.000  H
  H63      1.0000 0.33254  0.98401  0.60760  Biso   1.000  H
  H64      1.0000 0.66747  0.98401  0.89242  Biso   1.000  H
  H65      1.0000 0.07888  0.47798  0.32371  Biso   1.000  H
  H66      1.0000 0.92111  0.47797  0.17631  Biso   1.000  H
  H67      1.0000 0.57888  0.97798  0.32371  Biso   1.000  H
  H68      1.0000 0.42111  0.97797  0.17631  Biso   1.000  H
  H69      1.0000 0.92112  0.52202  0.67631  Biso   1.000  H
  H70      1.0000 0.07890  0.52204  0.82375  Biso   1.000  H
  H71      1.0000 0.42112  0.02202  0.67631  Biso   1.000  H
  H72      1.0000 0.57890  0.02204  0.82375  Biso   1.000  H
  C65      1.0000 0.17450  0.38539  0.23531  Biso   1.000  C
  C66      1.0000 0.82550  0.38539  0.26472  Biso   1.000  C
  C67      1.0000 0.67450  0.88539  0.23531  Biso   1.000  C
  C68      1.0000 0.32550  0.88539  0.26472  Biso   1.000  C
  C69      1.0000 0.82550  0.61460  0.76472  Biso   1.000  C
  C70      1.0000 0.17450  0.61461  0.73531  Biso   1.000  C
  C71      1.0000 0.32550  0.11460  0.76472  Biso   1.000  C
  C72      1.0000 0.67450  0.11461  0.73531  Biso   1.000  C
  C73      1.0000 0.05756  0.05370  0.18147  Biso   1.000  C
  C74      1.0000 0.94246  0.05371  0.31857  Biso   1.000  C
  C75      1.0000 0.55756  0.55370  0.18148  Biso   1.000  C
  C76      1.0000 0.44246  0.55371  0.31857  Biso   1.000  C
  C77      1.0000 0.94245  0.94629  0.81856  Biso   1.000  C
  C78      1.0000 0.05755  0.94630  0.68147  Biso   1.000  C
  C79      1.0000 0.44245  0.44629  0.81856  Biso   1.000  C
  C80      1.0000 0.55755  0.44630  0.68147  Biso   1.000  C
  H73      1.0000 0.02970  0.06000  0.21776  Biso   1.000  H
  H74      1.0000 0.97032  0.06001  0.28229  Biso   1.000  H
  H75      1.0000 0.52970  0.56000  0.21776  Biso   1.000  H
  H76      1.0000 0.47032  0.56001  0.28229  Biso   1.000  H
  H77      1.0000 0.97031  0.93998  0.78229  Biso   1.000  H
  H78      1.0000 0.02969  0.94000  0.71775  Biso   1.000  H
  H79      1.0000 0.47031  0.43998  0.78229  Biso   1.000  H
  H80      1.0000 0.52969  0.44000  0.71775  Biso   1.000  H
  H81      1.0000 0.09380  0.97602  0.21890  Biso   1.000  H
  H82      1.0000 0.90622  0.97603  0.28114  Biso   1.000  H
  H83      1.0000 0.59380  0.47602  0.21890  Biso   1.000  H
  H84      1.0000 0.40622  0.47603  0.28114  Biso   1.000  H
  H85      1.0000 0.90621  0.02396  0.78114  Biso   1.000  H
  H86      1.0000 0.09379  0.02398  0.71889  Biso   1.000  H
  H87      1.0000 0.40621  0.52396  0.78113  Biso   1.000  H
  H88      1.0000 0.59379  0.52398  0.71889  Biso   1.000  H
  H89      1.0000 0.01930  0.03047  0.09622  Biso   1.000  H
  H90      1.0000 0.98070  0.03048  0.40382  Biso   1.000  H
  H91      1.0000 0.51930  0.53047  0.09622  Biso   1.000  H
  H92      1.0000 0.48070  0.53048  0.40382  Biso   1.000  H
  H93      1.0000 0.98070  0.96952  0.90382  Biso   1.000  H
  H94      1.0000 0.01930  0.96953  0.59621  Biso   1.000  H
  H95      1.0000 0.48070  0.46952  0.90382  Biso   1.000  H
  H96      1.0000 0.51930  0.46953  0.59621  Biso   1.000  H
  C81      1.0000 0.00903  0.61533  0.04122  Biso   1.000  C
  C82      1.0000 0.99096  0.61534  0.45881  Biso   1.000  C
  C83      1.0000 0.50903  0.11533  0.04122  Biso   1.000  C
  C84      1.0000 0.49096  0.11534  0.45881  Biso   1.000  C
  C85      1.0000 0.99097  0.38465  0.95881  Biso   1.000  C
  C86      1.0000 0.00903  0.38467  0.54122  Biso   1.000  C
  C87      1.0000 0.49097  0.88465  0.95881  Biso   1.000  C
  C88      1.0000 0.50903  0.88467  0.54122  Biso   1.000  C
  C89      1.0000 0.20216  0.82167  0.99726  Biso   1.000  C
  C90      1.0000 0.79784  0.82167  0.50278  Biso   1.000  C
  C91      1.0000 0.70216  0.32167  0.99726  Biso   1.000  C
  C92      1.0000 0.29784  0.32167  0.50278  Biso   1.000  C
  C93      1.0000 0.79784  0.17832  0.00278  Biso   1.000  C
  C94      1.0000 0.20216  0.17833  0.49726  Biso   1.000  C
  C95      1.0000 0.29784  0.67832  0.00278  Biso   1.000  C
  C96      1.0000 0.70216  0.67833  0.49726  Biso   1.000  C
  C97      1.0000 0.14792  0.89839  0.99055  Biso   1.000  C
  C98      1.0000 0.85207  0.89840  0.50948  Biso   1.000  C
  C99      1.0000 0.64792  0.39839  0.99055  Biso   1.000  C
  C100     1.0000 0.35207  0.39840  0.50948  Biso   1.000  C
  C101     1.0000 0.85208  0.10160  0.00948  Biso   1.000  C
  C102     1.0000 0.14793  0.10161  0.49056  Biso   1.000  C
  C103     1.0000 0.35208  0.60160  0.00948  Biso   1.000  C
  C104     1.0000 0.64793  0.60161  0.49056  Biso   1.000  C
  H97      1.0000 0.14974  0.88496  0.06273  Biso   1.000  H
  H98      1.0000 0.85026  0.88495  0.43730  Biso   1.000  H
  H99      1.0000 0.64974  0.38496  0.06273  Biso   1.000  H
  H100     1.0000 0.35026  0.38495  0.43730  Biso   1.000  H
  H101     1.0000 0.85026  0.11505  0.93730  Biso   1.000  H
  H102     1.0000 0.14974  0.11505  0.56274  Biso   1.000  H
  H103     1.0000 0.35026  0.61505  0.93730  Biso   1.000  H
  H104     1.0000 0.64974  0.61505  0.56274  Biso   1.000  H
  H105     1.0000 0.09627  0.86960  0.92114  Biso   1.000  H
  H106     1.0000 0.90373  0.86963  0.57890  Biso   1.000  H
  H107     1.0000 0.59627  0.36960  0.92114  Biso   1.000  H
  H108     1.0000 0.40373  0.36963  0.57890  Biso   1.000  H
  H109     1.0000 0.90373  0.13037  0.07891  Biso   1.000  H
  H110     1.0000 0.09627  0.13037  0.42114  Biso   1.000  H
  H111     1.0000 0.40373  0.63037  0.07891  Biso   1.000  H
  H112     1.0000 0.59627  0.63037  0.42114  Biso   1.000  H
  H113     1.0000 0.15485  0.99603  0.98195  Biso   1.000  H
  H114     1.0000 0.84513  0.99604  0.51806  Biso   1.000  H
  H115     1.0000 0.65485  0.49603  0.98195  Biso   1.000  H
  H116     1.0000 0.34513  0.49604  0.51806  Biso   1.000  H
  H117     1.0000 0.84514  0.00396  0.01806  Biso   1.000  H
  H118     1.0000 0.15487  0.00396  0.48197  Biso   1.000  H
  H119     1.0000 0.34514  0.50396  0.01806  Biso   1.000  H
  H120     1.0000 0.65487  0.50396  0.48197  Biso   1.000  H
  C105     1.0000 0.01906  0.74171  0.08566  Biso   1.000  C
  C106     1.0000 0.98094  0.74172  0.41438  Biso   1.000  C
  C107     1.0000 0.51906  0.24171  0.08566  Biso   1.000  C
  C108     1.0000 0.48094  0.24172  0.41438  Biso   1.000  C
  C109     1.0000 0.98094  0.25827  0.91438  Biso   1.000  C
  C110     1.0000 0.01906  0.25829  0.58565  Biso   1.000  C
  C111     1.0000 0.48094  0.75827  0.91438  Biso   1.000  C
  C112     1.0000 0.51906  0.75829  0.58565  Biso   1.000  C
  H121     1.0000 0.07059  0.75151  0.16244  Biso   1.000  H
  H122     1.0000 0.92941  0.75154  0.33758  Biso   1.000  H
  H123     1.0000 0.57059  0.25151  0.16244  Biso   1.000  H
  H124     1.0000 0.42941  0.25154  0.33758  Biso   1.000  H
  H125     1.0000 0.92941  0.24846  0.83759  Biso   1.000  H
  H126     1.0000 0.07058  0.24848  0.66245  Biso   1.000  H
  H127     1.0000 0.42941  0.74846  0.83759  Biso   1.000  H
  H128     1.0000 0.57058  0.74848  0.66245  Biso   1.000  H
  H129     1.0000 0.97898  0.76473  0.09655  Biso   1.000  H
  H130     1.0000 0.02102  0.76474  0.40350  Biso   1.000  H
  H131     1.0000 0.47898  0.26473  0.09655  Biso   1.000  H
  H132     1.0000 0.52102  0.26474  0.40350  Biso   1.000  H
  H133     1.0000 0.02102  0.23526  0.90350  Biso   1.000  H
  H134     1.0000 0.97897  0.23526  0.59652  Biso   1.000  H
  H135     1.0000 0.52102  0.73526  0.90350  Biso   1.000  H
  H136     1.0000 0.47897  0.73526  0.59652  Biso   1.000  H
  H137     1.0000 0.01614  0.80841  0.02976  Biso   1.000  H
  H138     1.0000 0.98385  0.80843  0.47027  Biso   1.000  H
  H139     1.0000 0.51614  0.30841  0.02976  Biso   1.000  H
  H140     1.0000 0.48385  0.30843  0.47027  Biso   1.000  H
  H141     1.0000 0.98386  0.19156  0.97028  Biso   1.000  H
  H142     1.0000 0.01615  0.19159  0.52976  Biso   1.000  H
  H143     1.0000 0.48386  0.69156  0.97028  Biso   1.000  H
  H144     1.0000 0.51615  0.69159  0.52976  Biso   1.000  H
