data_image0
_cell_length_a       11.5477
_cell_length_b       11.545
_cell_length_c       11.5164
_cell_angle_alpha    90.0221
_cell_angle_beta     89.9785
_cell_angle_gamma    90.0217

_symmetry_space_group_name_H-M    "P 1"
_symmetry_int_tables_number       1

loop_
  _symmetry_equiv_pos_as_xyz
  'x, y, z'

loop_
  _atom_site_label
  _atom_site_occupancy
  _atom_site_fract_x
  _atom_site_fract_y
  _atom_site_fract_z
  _atom_site_thermal_displace_type
  _atom_site_B_iso_or_equiv
  _atom_site_type_symbol
  Ga1      1.0000 0.25011  0.25094  0.24989  Biso   1.000  Ga
  Ga2      1.0000 0.74992  0.74986  0.75057  Biso   1.000  Ga
  Ga3      1.0000 0.75012  0.75089  0.25029  Biso   1.000  Ga
  Ga4      1.0000 0.75003  0.24988  0.74988  Biso   1.000  Ga
  Ga5      1.0000 0.25007  0.74987  0.75056  Biso   1.000  Ga
  Ga6      1.0000 0.24998  0.24991  0.74986  Biso   1.000  Ga
  Ga7      1.0000 0.24989  0.75094  0.25029  Biso   1.000  Ga
  Ga8      1.0000 0.74989  0.25086  0.24990  Biso   1.000  Ga
  C1       1.0000 0.23023  0.26931  0.99981  Biso   1.000  C
  C2       1.0000 1.00000  0.23385  0.26858  Biso   1.000  C
  C3       1.0000 0.26591  0.00095  0.23086  Biso   1.000  C
  C4       1.0000 0.73037  0.76925  0.50039  Biso   1.000  C
  C5       1.0000 0.50001  0.73159  0.76945  Biso   1.000  C
  C6       1.0000 0.76645  0.49998  0.73092  Biso   1.000  C
  C7       1.0000 0.76975  0.73104  0.00050  Biso   1.000  C
  C8       1.0000 0.76982  0.26921  0.99983  Biso   1.000  C
  C9       1.0000 0.23015  0.73121  0.00049  Biso   1.000  C
  C10      1.0000 1.00000  0.76782  0.73240  Biso   1.000  C
  C11      1.0000 1.00000  0.76896  0.26955  Biso   1.000  C
  C12      1.0000 0.00001  0.23167  0.73077  Biso   1.000  C
  C13      1.0000 0.73356  0.99984  0.76933  Biso   1.000  C
  C14      1.0000 0.26654  0.99989  0.76927  Biso   1.000  C
  C15      1.0000 0.73397  0.00089  0.23094  Biso   1.000  C
  C16      1.0000 0.26987  0.23139  0.49988  Biso   1.000  C
  C17      1.0000 0.26967  0.76926  0.50040  Biso   1.000  C
  C18      1.0000 0.73009  0.23133  0.49988  Biso   1.000  C
  C19      1.0000 0.49998  0.26897  0.23071  Biso   1.000  C
  C20      1.0000 0.49998  0.26797  0.76905  Biso   1.000  C
  C21      1.0000 0.50002  0.73402  0.23139  Biso   1.000  C
  C22      1.0000 0.23409  0.50095  0.26925  Biso   1.000  C
  C23      1.0000 0.76600  0.50089  0.26921  Biso   1.000  C
  C24      1.0000 0.23356  0.49999  0.73090  Biso   1.000  C
  H1       1.0000 0.30899  0.21587  0.99983  Biso   1.000  H
  H2       1.0000 0.00005  0.31169  0.21363  Biso   1.000  H
  H3       1.0000 0.21422  0.00110  0.31102  Biso   1.000  H
  H4       1.0000 0.80907  0.71574  0.50016  Biso   1.000  H
  H5       1.0000 0.50010  0.81078  0.71647  Biso   1.000  H
  H6       1.0000 0.71513  0.49993  0.81132  Biso   1.000  H
  H7       1.0000 0.69100  0.78448  0.00050  Biso   1.000  H
  H8       1.0000 0.69114  0.21560  0.99992  Biso   1.000  H
  H9       1.0000 0.30872  0.78498  0.00039  Biso   1.000  H
  H10      1.0000 0.99992  0.68744  0.78355  Biso   1.000  H
  H11      1.0000 1.00000  0.68985  0.21639  Biso   1.000  H
  H12      1.0000 0.00004  0.31069  0.78409  Biso   1.000  H
  H13      1.0000 0.78510  0.99967  0.68907  Biso   1.000  H
  H14      1.0000 0.21516  0.99967  0.68895  Biso   1.000  H
  H15      1.0000 0.78540  0.00107  0.31123  Biso   1.000  H
  H16      1.0000 0.19116  0.28490  0.50006  Biso   1.000  H
  H17      1.0000 0.19097  0.71567  0.50024  Biso   1.000  H
  H18      1.0000 0.80872  0.28500  0.49995  Biso   1.000  H
  H19      1.0000 0.49991  0.19003  0.28407  Biso   1.000  H
  H20      1.0000 0.49995  0.18884  0.71590  Biso   1.000  H
  H21      1.0000 0.50005  0.81208  0.28608  Biso   1.000  H
  H22      1.0000 0.28578  0.50108  0.18908  Biso   1.000  H
  H23      1.0000 0.71452  0.50094  0.18895  Biso   1.000  H
  H24      1.0000 0.28491  0.50000  0.81124  Biso   1.000  H
  O1       1.0000 0.18502  0.29974  0.09600  Biso   1.000  O
  O2       1.0000 0.09583  0.18901  0.29969  Biso   1.000  O
  O3       1.0000 0.29529  0.09675  0.18459  Biso   1.000  O
  O4       1.0000 0.68521  0.79930  0.59674  Biso   1.000  O
  O5       1.0000 0.59587  0.68599  0.79942  Biso   1.000  O
  O6       1.0000 0.79555  0.59591  0.68473  Biso   1.000  O
  O7       1.0000 0.81519  0.70119  0.09672  Biso   1.000  O
  O8       1.0000 0.81507  0.29935  0.90358  Biso   1.000  O
  O9       1.0000 0.18516  0.70038  0.90436  Biso   1.000  O
  O10      1.0000 0.09590  0.81410  0.70349  Biso   1.000  O
  O11      1.0000 0.90411  0.81450  0.29961  Biso   1.000  O
  O12      1.0000 0.90408  0.18623  0.70060  Biso   1.000  O
  O13      1.0000 0.70449  0.09584  0.81539  Biso   1.000  O
  O14      1.0000 0.29580  0.90413  0.81563  Biso   1.000  O
  O15      1.0000 0.70490  0.90494  0.18481  Biso   1.000  O
  O16      1.0000 0.31500  0.20074  0.59599  Biso   1.000  O
  O17      1.0000 0.31495  0.79978  0.40427  Biso   1.000  O
  O18      1.0000 0.68482  0.20125  0.40361  Biso   1.000  O
  O19      1.0000 0.59593  0.31437  0.20056  Biso   1.000  O
  O20      1.0000 0.40409  0.31356  0.79907  Biso   1.000  O
  O21      1.0000 0.40415  0.68906  0.20042  Biso   1.000  O
  O22      1.0000 0.20470  0.59675  0.31553  Biso   1.000  O
  O23      1.0000 0.79514  0.40499  0.31531  Biso   1.000  O
  O24      1.0000 0.20452  0.40413  0.68455  Biso   1.000  O
  O25      1.0000 0.81480  0.70038  0.90432  Biso   1.000  O
  O26      1.0000 0.90417  0.81410  0.70347  Biso   1.000  O
  O27      1.0000 0.70421  0.90408  0.81568  Biso   1.000  O
  O28      1.0000 0.31516  0.20144  0.40356  Biso   1.000  O
  O29      1.0000 0.40414  0.31444  0.20050  Biso   1.000  O
  O30      1.0000 0.20486  0.40503  0.31530  Biso   1.000  O
  O31      1.0000 0.18492  0.29934  0.90360  Biso   1.000  O
  O32      1.0000 0.18484  0.70119  0.09676  Biso   1.000  O
  O33      1.0000 0.81502  0.29972  0.09598  Biso   1.000  O
  O34      1.0000 0.90412  0.18897  0.29967  Biso   1.000  O
  O35      1.0000 0.09592  0.18618  0.70067  Biso   1.000  O
  O36      1.0000 0.09590  0.81449  0.29965  Biso   1.000  O
  O37      1.0000 0.29514  0.90502  0.18482  Biso   1.000  O
  O38      1.0000 0.70470  0.09667  0.18461  Biso   1.000  O
  O39      1.0000 0.29551  0.09590  0.81539  Biso   1.000  O
  O40      1.0000 0.68506  0.79973  0.40431  Biso   1.000  O
  O41      1.0000 0.68500  0.20066  0.59606  Biso   1.000  O
  O42      1.0000 0.31485  0.79933  0.59670  Biso   1.000  O
  O43      1.0000 0.40406  0.68603  0.79941  Biso   1.000  O
  O44      1.0000 0.59585  0.68901  0.20043  Biso   1.000  O
  O45      1.0000 0.59592  0.31344  0.79915  Biso   1.000  O
  O46      1.0000 0.79549  0.40413  0.68455  Biso   1.000  O
  O47      1.0000 0.20443  0.59591  0.68475  Biso   1.000  O
  O48      1.0000 0.79527  0.59672  0.31552  Biso   1.000  O
