data_image0
_cell_length_a       23.6249
_cell_length_b       23.6558
_cell_length_c       17.3789
_cell_angle_alpha    89.9256
_cell_angle_beta     90.0459
_cell_angle_gamma    90.0309

_symmetry_space_group_name_H-M    "P 1"
_symmetry_int_tables_number       1

loop_
  _symmetry_equiv_pos_as_xyz
  'x, y, z'

loop_
  _atom_site_label
  _atom_site_occupancy
  _atom_site_fract_x
  _atom_site_fract_y
  _atom_site_fract_z
  _atom_site_thermal_displace_type
  _atom_site_B_iso_or_equiv
  _atom_site_type_symbol
  Zr1      1.0000 0.39870  0.00065  0.00100  Biso   1.000  Zr
  Zr2      1.0000 0.00104  0.39881  0.50022  Biso   1.000  Zr
  Zr3      1.0000 0.60187  0.99941  0.99950  Biso   1.000  Zr
  Zr4      1.0000 0.99984  0.60172  0.49982  Biso   1.000  Zr
  Zr5      1.0000 0.50132  0.06972  0.09389  Biso   1.000  Zr
  Zr6      1.0000 0.93172  0.49995  0.59525  Biso   1.000  Zr
  Zr7      1.0000 0.50039  0.93092  0.09519  Biso   1.000  Zr
  Zr8      1.0000 0.07080  0.50101  0.59347  Biso   1.000  Zr
  Zr9      1.0000 0.49947  0.93017  0.90647  Biso   1.000  Zr
  Zr10     1.0000 0.49994  0.06895  0.90521  Biso   1.000  Zr
  Zr11     1.0000 0.06929  0.50088  0.40478  Biso   1.000  Zr
  Zr12     1.0000 0.93024  0.49928  0.40656  Biso   1.000  Zr
  O1       1.0000 0.35568  0.06184  0.08307  Biso   1.000  O
  O2       1.0000 0.94050  0.35516  0.58393  Biso   1.000  O
  O3       1.0000 0.64598  0.93878  0.08215  Biso   1.000  O
  O4       1.0000 0.06049  0.64681  0.58015  Biso   1.000  O
  O5       1.0000 0.35345  0.94037  0.92002  Biso   1.000  O
  O6       1.0000 0.64517  0.05990  0.91573  Biso   1.000  O
  O7       1.0000 0.06167  0.35550  0.41690  Biso   1.000  O
  O8       1.0000 0.93849  0.64453  0.41942  Biso   1.000  O
  O9       1.0000 0.64524  0.93845  0.91862  Biso   1.000  O
  O10      1.0000 0.05944  0.64634  0.41667  Biso   1.000  O
  O11      1.0000 0.35494  0.06135  0.91928  Biso   1.000  O
  O12      1.0000 0.94050  0.35341  0.41977  Biso   1.000  O
  O13      1.0000 0.64682  0.05985  0.08050  Biso   1.000  O
  O14      1.0000 0.35501  0.94069  0.08350  Biso   1.000  O
  O15      1.0000 0.93932  0.64492  0.58251  Biso   1.000  O
  O16      1.0000 0.06182  0.35535  0.58048  Biso   1.000  O
  O17      1.0000 0.44934  0.00063  0.10399  Biso   1.000  O
  O18      1.0000 0.00167  0.44901  0.60336  Biso   1.000  O
  O19      1.0000 0.55260  0.00000  0.10329  Biso   1.000  O
  O20      1.0000 0.00107  0.55205  0.60361  Biso   1.000  O
  O21      1.0000 0.44801  0.99985  0.89702  Biso   1.000  O
  O22      1.0000 0.55123  0.99921  0.89642  Biso   1.000  O
  O23      1.0000 0.00006  0.44854  0.39684  Biso   1.000  O
  O24      1.0000 0.99932  0.55152  0.39639  Biso   1.000  O
  O25      1.0000 0.42626  0.10879  0.14737  Biso   1.000  O
  O26      1.0000 0.89401  0.42502  0.64994  Biso   1.000  O
  O27      1.0000 0.57595  0.89348  0.14980  Biso   1.000  O
  O28      1.0000 0.10852  0.57764  0.64595  Biso   1.000  O
  O29      1.0000 0.42293  0.89357  0.85335  Biso   1.000  O
  O30      1.0000 0.57479  0.10629  0.85017  Biso   1.000  O
  O31      1.0000 0.10678  0.42590  0.34989  Biso   1.000  O
  O32      1.0000 0.89129  0.57499  0.35351  Biso   1.000  O
  O33      1.0000 0.57537  0.89135  0.85319  Biso   1.000  O
  O34      1.0000 0.10615  0.57675  0.35027  Biso   1.000  O
  O35      1.0000 0.42434  0.10669  0.85068  Biso   1.000  O
  O36      1.0000 0.89323  0.42275  0.35343  Biso   1.000  O
  O37      1.0000 0.57742  0.10667  0.14710  Biso   1.000  O
  O38      1.0000 0.42458  0.89372  0.14981  Biso   1.000  O
  O39      1.0000 0.89375  0.57504  0.64987  Biso   1.000  O
  O40      1.0000 0.10888  0.42464  0.64696  Biso   1.000  O
  O41      1.0000 0.44800  0.92320  0.00109  Biso   1.000  O
  O42      1.0000 0.07829  0.44930  0.49921  Biso   1.000  O
  O43      1.0000 0.55264  0.07673  0.99918  Biso   1.000  O
  O44      1.0000 0.92303  0.55112  0.50082  Biso   1.000  O
  O45      1.0000 0.44898  0.07747  0.99991  Biso   1.000  O
  O46      1.0000 0.55164  0.92248  0.00060  Biso   1.000  O
  O47      1.0000 0.92340  0.44767  0.50103  Biso   1.000  O
  O48      1.0000 0.07732  0.55282  0.49898  Biso   1.000  O
  C1       1.0000 0.37372  0.09901  0.12988  Biso   1.000  C
  C2       1.0000 0.90379  0.37268  0.63167  Biso   1.000  C
  C3       1.0000 0.62838  0.90331  0.13169  Biso   1.000  C
  C4       1.0000 0.09753  0.62982  0.62805  Biso   1.000  C
  C5       1.0000 0.37068  0.90410  0.87142  Biso   1.000  C
  C6       1.0000 0.62731  0.09636  0.86772  Biso   1.000  C
  C7       1.0000 0.09727  0.37341  0.36779  Biso   1.000  C
  C8       1.0000 0.90160  0.62718  0.37157  Biso   1.000  C
  C9       1.0000 0.62774  0.90157  0.87095  Biso   1.000  C
  C10      1.0000 0.09596  0.62899  0.36846  Biso   1.000  C
  C11      1.0000 0.37208  0.09695  0.86958  Biso   1.000  C
  C12      1.0000 0.90383  0.37055  0.37139  Biso   1.000  C
  C13      1.0000 0.62967  0.09615  0.12914  Biso   1.000  C
  C14      1.0000 0.37227  0.90407  0.13173  Biso   1.000  C
  C15      1.0000 0.90343  0.62737  0.63150  Biso   1.000  C
  C16      1.0000 0.09832  0.37248  0.62911  Biso   1.000  C
  C17      1.0000 0.32993  0.13543  0.16707  Biso   1.000  C
  C18      1.0000 0.86748  0.32889  0.66920  Biso   1.000  C
  C19      1.0000 0.67257  0.86887  0.17166  Biso   1.000  C
  C20      1.0000 0.13228  0.67448  0.66639  Biso   1.000  C
  C21      1.0000 0.32631  0.86949  0.83242  Biso   1.000  C
  C22      1.0000 0.67086  0.13213  0.82887  Biso   1.000  C
  C23      1.0000 0.13244  0.32980  0.32814  Biso   1.000  C
  C24      1.0000 0.86639  0.67173  0.33406  Biso   1.000  C
  C25      1.0000 0.67221  0.86626  0.83312  Biso   1.000  C
  C26      1.0000 0.13135  0.67323  0.33032  Biso   1.000  C
  C27      1.0000 0.32748  0.13143  0.83059  Biso   1.000  C
  C28      1.0000 0.86909  0.32609  0.33256  Biso   1.000  C
  C29      1.0000 0.67408  0.13076  0.16812  Biso   1.000  C
  C30      1.0000 0.32780  0.86895  0.16987  Biso   1.000  C
  C31      1.0000 0.86839  0.67145  0.67031  Biso   1.000  C
  C32      1.0000 0.13263  0.32758  0.66774  Biso   1.000  C
  C33      1.0000 0.27488  0.13437  0.13732  Biso   1.000  C
  C34      1.0000 0.86692  0.27445  0.63804  Biso   1.000  C
  C35      1.0000 0.72740  0.86830  0.14118  Biso   1.000  C
  C36      1.0000 0.12895  0.73026  0.63966  Biso   1.000  C
  C37      1.0000 0.27176  0.86828  0.86378  Biso   1.000  C
  C38      1.0000 0.72652  0.13025  0.85619  Biso   1.000  C
  C39      1.0000 0.13259  0.27469  0.35745  Biso   1.000  C
  C40      1.0000 0.87063  0.72709  0.36153  Biso   1.000  C
  C41      1.0000 0.72725  0.86737  0.86292  Biso   1.000  C
  C42      1.0000 0.13240  0.72749  0.36228  Biso   1.000  C
  C43      1.0000 0.27258  0.13045  0.86070  Biso   1.000  C
  C44      1.0000 0.87084  0.27072  0.36103  Biso   1.000  C
  C45      1.0000 0.72891  0.13015  0.13796  Biso   1.000  C
  C46      1.0000 0.27275  0.87013  0.14016  Biso   1.000  C
  C47      1.0000 0.86821  0.72618  0.63960  Biso   1.000  C
  C48      1.0000 0.13152  0.27292  0.63703  Biso   1.000  C
  H1       1.0000 0.26571  0.10642  0.08945  Biso   1.000  H
  H2       1.0000 0.89389  0.26544  0.58903  Biso   1.000  H
  H3       1.0000 0.73636  0.89403  0.09089  Biso   1.000  H
  H4       1.0000 0.10007  0.74000  0.59281  Biso   1.000  H
  H5       1.0000 0.26286  0.89368  0.91433  Biso   1.000  H
  H6       1.0000 0.73665  0.10168  0.90315  Biso   1.000  H
  H7       1.0000 0.10587  0.26495  0.40650  Biso   1.000  H
  H8       1.0000 0.90021  0.73595  0.40782  Biso   1.000  H
  H9       1.0000 0.73629  0.89472  0.91155  Biso   1.000  H
  H10      1.0000 0.10639  0.73605  0.41237  Biso   1.000  H
  H11      1.0000 0.26387  0.10354  0.90993  Biso   1.000  H
  H12      1.0000 0.89842  0.26127  0.40935  Biso   1.000  H
  H13      1.0000 0.73761  0.10344  0.08865  Biso   1.000  H
  H14      1.0000 0.26365  0.89772  0.09172  Biso   1.000  H
  H15      1.0000 0.89458  0.73517  0.58995  Biso   1.000  H
  H16      1.0000 0.10478  0.26461  0.58748  Biso   1.000  H
  C49      1.0000 0.23266  0.16908  0.16732  Biso   1.000  C
  C50      1.0000 0.83158  0.23260  0.66788  Biso   1.000  C
  C51      1.0000 0.76950  0.83428  0.17313  Biso   1.000  C
  C52      1.0000 0.16273  0.77272  0.67143  Biso   1.000  C
  C53      1.0000 0.22976  0.83413  0.83191  Biso   1.000  C
  C54      1.0000 0.76813  0.16516  0.82506  Biso   1.000  C
  C55      1.0000 0.16752  0.23322  0.32599  Biso   1.000  C
  C56      1.0000 0.83711  0.77028  0.33136  Biso   1.000  C
  C57      1.0000 0.76985  0.83337  0.83208  Biso   1.000  C
  C58      1.0000 0.16709  0.76959  0.33173  Biso   1.000  C
  C59      1.0000 0.22982  0.16401  0.82941  Biso   1.000  C
  C60      1.0000 0.83714  0.22837  0.32906  Biso   1.000  C
  C61      1.0000 0.77150  0.16408  0.16893  Biso   1.000  C
  C62      1.0000 0.23031  0.83581  0.17084  Biso   1.000  C
  C63      1.0000 0.83403  0.76829  0.67083  Biso   1.000  C
  C64      1.0000 0.16486  0.22987  0.66800  Biso   1.000  C
  C65      1.0000 0.34221  0.17115  0.22905  Biso   1.000  C
  C66      1.0000 0.83294  0.34084  0.73259  Biso   1.000  C
  C67      1.0000 0.66065  0.83615  0.23684  Biso   1.000  C
  C68      1.0000 0.16902  0.66168  0.72723  Biso   1.000  C
  C69      1.0000 0.33807  0.83735  0.76678  Biso   1.000  C
  C70      1.0000 0.65747  0.16862  0.76801  Biso   1.000  C
  C71      1.0000 0.16655  0.34271  0.26465  Biso   1.000  C
  C72      1.0000 0.82868  0.65987  0.27402  Biso   1.000  C
  C73      1.0000 0.66039  0.83143  0.77000  Biso   1.000  C
  C74      1.0000 0.16442  0.66182  0.26537  Biso   1.000  C
  C75      1.0000 0.33890  0.16541  0.76643  Biso   1.000  C
  C76      1.0000 0.83407  0.33839  0.26969  Biso   1.000  C
  C77      1.0000 0.66241  0.16478  0.23203  Biso   1.000  C
  C78      1.0000 0.33979  0.83396  0.23286  Biso   1.000  C
  C79      1.0000 0.83491  0.65958  0.73477  Biso   1.000  C
  C80      1.0000 0.16645  0.33845  0.73224  Biso   1.000  C
  H17      1.0000 0.38496  0.17213  0.25229  Biso   1.000  H
  H18      1.0000 0.83322  0.38317  0.75694  Biso   1.000  H
  H19      1.0000 0.61811  0.83657  0.26072  Biso   1.000  H
  H20      1.0000 0.17153  0.61840  0.74809  Biso   1.000  H
  H21      1.0000 0.38044  0.83840  0.74240  Biso   1.000  H
  H22      1.0000 0.61422  0.17006  0.74662  Biso   1.000  H
  H23      1.0000 0.16642  0.38550  0.24169  Biso   1.000  H
  H24      1.0000 0.82540  0.61687  0.25241  Biso   1.000  H
  H25      1.0000 0.61770  0.83045  0.74659  Biso   1.000  H
  H26      1.0000 0.16370  0.61966  0.24052  Biso   1.000  H
  H27      1.0000 0.38147  0.16616  0.74266  Biso   1.000  H
  H28      1.0000 0.83274  0.38134  0.24737  Biso   1.000  H
  H29      1.0000 0.61985  0.16527  0.25581  Biso   1.000  H
  H30      1.0000 0.38251  0.83311  0.25620  Biso   1.000  H
  H31      1.0000 0.83502  0.61710  0.75878  Biso   1.000  H
  H32      1.0000 0.16729  0.38080  0.75650  Biso   1.000  H
  C81      1.0000 0.24454  0.20522  0.22977  Biso   1.000  C
  C82      1.0000 0.79652  0.24409  0.73160  Biso   1.000  C
  C83      1.0000 0.75777  0.80070  0.23838  Biso   1.000  C
  C84      1.0000 0.20024  0.76004  0.73222  Biso   1.000  C
  C85      1.0000 0.24127  0.80130  0.76605  Biso   1.000  C
  C86      1.0000 0.75511  0.20255  0.76423  Biso   1.000  C
  C87      1.0000 0.20255  0.24593  0.26259  Biso   1.000  C
  C88      1.0000 0.79860  0.75879  0.27134  Biso   1.000  C
  C89      1.0000 0.75832  0.79791  0.76877  Biso   1.000  C
  C90      1.0000 0.20069  0.75853  0.26641  Biso   1.000  C
  C91      1.0000 0.24100  0.19897  0.76533  Biso   1.000  C
  C92      1.0000 0.80133  0.24044  0.26611  Biso   1.000  C
  C93      1.0000 0.76013  0.19899  0.23281  Biso   1.000  C
  C94      1.0000 0.24210  0.79996  0.23373  Biso   1.000  C
  C95      1.0000 0.79977  0.75673  0.73552  Biso   1.000  C
  C96      1.0000 0.19964  0.24051  0.73246  Biso   1.000  C
  C97      1.0000 0.29966  0.20498  0.26032  Biso   1.000  C
  C98      1.0000 0.79864  0.29857  0.76377  Biso   1.000  C
  C99      1.0000 0.70313  0.80317  0.27010  Biso   1.000  C
  C100     1.0000 0.20196  0.70422  0.76000  Biso   1.000  C
  C101     1.0000 0.29563  0.80437  0.73360  Biso   1.000  C
  C102     1.0000 0.69941  0.20283  0.73580  Biso   1.000  C
  C103     1.0000 0.20047  0.30089  0.23189  Biso   1.000  C
  C104     1.0000 0.79579  0.70317  0.24291  Biso   1.000  C
  C105     1.0000 0.70323  0.79844  0.73796  Biso   1.000  C
  C106     1.0000 0.19791  0.70441  0.23337  Biso   1.000  C
  C107     1.0000 0.29585  0.19807  0.73397  Biso   1.000  C
  C108     1.0000 0.80120  0.29580  0.23664  Biso   1.000  C
  C109     1.0000 0.70529  0.19773  0.26426  Biso   1.000  C
  C110     1.0000 0.29711  0.80059  0.26471  Biso   1.000  C
  C111     1.0000 0.80171  0.70210  0.76729  Biso   1.000  C
  C112     1.0000 0.19877  0.29508  0.76449  Biso   1.000  C
  H33      1.0000 0.30888  0.23227  0.30906  Biso   1.000  H
  H34      1.0000 0.77235  0.30756  0.81361  Biso   1.000  H
  H35      1.0000 0.69405  0.77784  0.32089  Biso   1.000  H
  H36      1.0000 0.23027  0.69454  0.80758  Biso   1.000  H
  H37      1.0000 0.30442  0.77970  0.68222  Biso   1.000  H
  H38      1.0000 0.68919  0.23095  0.68822  Biso   1.000  H
  H39      1.0000 0.22672  0.31070  0.18228  Biso   1.000  H
  H40      1.0000 0.76673  0.69430  0.19589  Biso   1.000  H
  H41      1.0000 0.69427  0.77177  0.68851  Biso   1.000  H
  H42      1.0000 0.22324  0.69586  0.18248  Biso   1.000  H
  H43      1.0000 0.30456  0.22432  0.68393  Biso   1.000  H
  H44      1.0000 0.77418  0.30524  0.18760  Biso   1.000  H
  H45      1.0000 0.69649  0.22386  0.31427  Biso   1.000  H
  H46      1.0000 0.30614  0.77371  0.31401  Biso   1.000  H
  H47      1.0000 0.77596  0.69310  0.81768  Biso   1.000  H
  H48      1.0000 0.22482  0.30332  0.81486  Biso   1.000  H
  C113     1.0000 0.17574  0.16867  0.12764  Biso   1.000  C
  C114     1.0000 0.82908  0.17743  0.62457  Biso   1.000  C
  C115     1.0000 0.82589  0.83166  0.13233  Biso   1.000  C
  C116     1.0000 0.16084  0.83040  0.63381  Biso   1.000  C
  C117     1.0000 0.17330  0.83100  0.87237  Biso   1.000  C
  C118     1.0000 0.82573  0.16450  0.86248  Biso   1.000  C
  C119     1.0000 0.17054  0.17708  0.36728  Biso   1.000  C
  C120     1.0000 0.84135  0.82696  0.37087  Biso   1.000  C
  C121     1.0000 0.82610  0.83322  0.87358  Biso   1.000  C
  C122     1.0000 0.16994  0.82533  0.37381  Biso   1.000  C
  C123     1.0000 0.17321  0.16355  0.86974  Biso   1.000  C
  C124     1.0000 0.83842  0.17052  0.36594  Biso   1.000  C
  C125     1.0000 0.82728  0.16500  0.12652  Biso   1.000  C
  C126     1.0000 0.17395  0.83570  0.12967  Biso   1.000  C
  C127     1.0000 0.83273  0.82496  0.63081  Biso   1.000  C
  C128     1.0000 0.16509  0.17387  0.62624  Biso   1.000  C
  F1       1.0000 0.13104  0.16323  0.17666  Biso   1.000  F
  F2       1.0000 0.82456  0.13084  0.67005  Biso   1.000  F
  F3       1.0000 0.87126  0.83911  0.17990  Biso   1.000  F
  F4       1.0000 0.16803  0.87416  0.68352  Biso   1.000  F
  F5       1.0000 0.12839  0.83663  0.82361  Biso   1.000  F
  F6       1.0000 0.86919  0.16317  0.81095  Biso   1.000  F
  F7       1.0000 0.17062  0.13120  0.32002  Biso   1.000  F
  F8       1.0000 0.83188  0.87174  0.32352  Biso   1.000  F
  F9       1.0000 0.87159  0.82678  0.82651  Biso   1.000  F
  F10      1.0000 0.16569  0.87128  0.32665  Biso   1.000  F
  F11      1.0000 0.12843  0.16320  0.82028  Biso   1.000  F
  F12      1.0000 0.84417  0.12809  0.31360  Biso   1.000  F
  F13      1.0000 0.87369  0.16581  0.17298  Biso   1.000  F
  F14      1.0000 0.12850  0.82924  0.17692  Biso   1.000  F
  F15      1.0000 0.83930  0.86926  0.68007  Biso   1.000  F
  F16      1.0000 0.16574  0.12822  0.67379  Biso   1.000  F
  F17      1.0000 0.16774  0.21784  0.08689  Biso   1.000  F
  F18      1.0000 0.78273  0.17754  0.57647  Biso   1.000  F
  F19      1.0000 0.83237  0.78011  0.09693  Biso   1.000  F
  F20      1.0000 0.20298  0.83467  0.57974  Biso   1.000  F
  F21      1.0000 0.16761  0.77996  0.90956  Biso   1.000  F
  F22      1.0000 0.83254  0.21225  0.90665  Biso   1.000  F
  F23      1.0000 0.21961  0.17491  0.41007  Biso   1.000  F
  F24      1.0000 0.80240  0.82988  0.42955  Biso   1.000  F
  F25      1.0000 0.82740  0.78984  0.92640  Biso   1.000  F
  F26      1.0000 0.22031  0.82990  0.41300  Biso   1.000  F
  F27      1.0000 0.16769  0.21028  0.91610  Biso   1.000  F
  F28      1.0000 0.78953  0.16037  0.40636  Biso   1.000  F
  F29      1.0000 0.82995  0.21222  0.08018  Biso   1.000  F
  F30      1.0000 0.17255  0.79234  0.07697  Biso   1.000  F
  F31      1.0000 0.78200  0.83237  0.59348  Biso   1.000  F
  F32      1.0000 0.21226  0.17019  0.58003  Biso   1.000  F
  F33      1.0000 0.17211  0.12549  0.07627  Biso   1.000  F
  F34      1.0000 0.87596  0.17012  0.57988  Biso   1.000  F
  F35      1.0000 0.82983  0.87176  0.07637  Biso   1.000  F
  F36      1.0000 0.11088  0.83947  0.59654  Biso   1.000  F
  F37      1.0000 0.16784  0.87185  0.92688  Biso   1.000  F
  F38      1.0000 0.83232  0.11900  0.90996  Biso   1.000  F
  F39      1.0000 0.12631  0.17021  0.41677  Biso   1.000  F
  F40      1.0000 0.89351  0.83468  0.40331  Biso   1.000  F
  F41      1.0000 0.83459  0.88198  0.91351  Biso   1.000  F
  F42      1.0000 0.12803  0.82987  0.42709  Biso   1.000  F
  F43      1.0000 0.16762  0.11758  0.91642  Biso   1.000  F
  F44      1.0000 0.88189  0.16533  0.41685  Biso   1.000  F
  F45      1.0000 0.83253  0.11895  0.07981  Biso   1.000  F
  F46      1.0000 0.16541  0.88451  0.08975  Biso   1.000  F
  F47      1.0000 0.87413  0.82968  0.57661  Biso   1.000  F
  F48      1.0000 0.11881  0.16792  0.57992  Biso   1.000  F
