data_image0
_cell_length_a       8.42122
_cell_length_b       10.7175
_cell_length_c       11.4117
_cell_angle_alpha    102.674
_cell_angle_beta     111.668
_cell_angle_gamma    98.36

_symmetry_space_group_name_H-M    "P 1"
_symmetry_int_tables_number       1

loop_
  _symmetry_equiv_pos_as_xyz
  'x, y, z'

loop_
  _atom_site_label
  _atom_site_occupancy
  _atom_site_fract_x
  _atom_site_fract_y
  _atom_site_fract_z
  _atom_site_thermal_displace_type
  _atom_site_B_iso_or_equiv
  _atom_site_type_symbol
  C1       1.0000 0.29258  0.54939  0.05621  Biso   1.000  C
  C2       1.0000 0.28055  0.63037  0.17992  Biso   1.000  C
  C3       1.0000 0.41570  0.74100  0.26866  Biso   1.000  C
  H1       1.0000 0.53428  0.76103  0.25183  Biso   1.000  H
  C4       1.0000 0.39348  0.82353  0.37049  Biso   1.000  C
  H2       1.0000 0.49454  0.91238  0.43722  Biso   1.000  H
  C5       1.0000 0.23555  0.79261  0.38515  Biso   1.000  C
  C6       1.0000 0.11028  0.67612  0.29978  Biso   1.000  C
  H3       1.0000 0.98733  0.64336  0.30817  Biso   1.000  H
  C7       1.0000 0.19324  0.89040  0.47846  Biso   1.000  C
  C8       1.0000 0.60671  0.33741  0.11844  Biso   1.000  C
  C9       1.0000 0.62399  0.25688  0.99695  Biso   1.000  C
  C10      1.0000 0.49132  0.14532  0.90735  Biso   1.000  C
  H4       1.0000 0.37125  0.12405  0.92196  Biso   1.000  H
  C11      1.0000 0.51739  0.06356  0.80715  Biso   1.000  C
  H5       1.0000 0.41857  0.97375  0.74018  Biso   1.000  H
  C12      1.0000 0.67648  0.09630  0.79454  Biso   1.000  C
  C13      1.0000 0.79977  0.21311  0.88126  Biso   1.000  C
  H6       1.0000 0.92434  0.24685  0.87543  Biso   1.000  H
  C14      1.0000 0.72090  0.99960  0.70157  Biso   1.000  C
  C15      1.0000 0.21483  0.33110  0.24428  Biso   1.000  C
  H7       1.0000 0.29465  0.34109  0.18899  Biso   1.000  H
  C16      1.0000 0.13033  0.28436  0.39625  Biso   1.000  C
  H8       1.0000 0.13621  0.24671  0.47797  Biso   1.000  H
  C17      1.0000 0.00551  0.33365  0.31563  Biso   1.000  C
  H9       1.0000 0.88404  0.35228  0.31857  Biso   1.000  H
  C18      1.0000 0.42911  0.24916  0.41063  Biso   1.000  C
  H10      1.0000 0.48543  0.24152  0.33752  Biso   1.000  H
  H11      1.0000 0.39942  0.15291  0.42705  Biso   1.000  H
  C19      1.0000 0.88747  0.53128  0.85616  Biso   1.000  C
  H12      1.0000 0.99749  0.50009  0.84195  Biso   1.000  H
  C20      1.0000 0.69531  0.57139  0.93847  Biso   1.000  C
  H13      1.0000 0.62871  0.57163  0.00383  Biso   1.000  H
  C21      1.0000 0.64730  0.60611  0.82343  Biso   1.000  C
  H14      1.0000 0.53951  0.64641  0.77426  Biso   1.000  H
  C22      1.0000 0.75965  0.58799  0.64313  Biso   1.000  C
  H15      1.0000 0.87883  0.56350  0.63704  Biso   1.000  H
  H16      1.0000 0.76423  0.69040  0.64098  Biso   1.000  H
  C23      1.0000 0.59359  0.49310  0.52813  Biso   1.000  C
  H17      1.0000 0.47891  0.53408  0.51962  Biso   1.000  H
  H18      1.0000 0.61120  0.49048  0.43666  Biso   1.000  H
  C24      1.0000 0.55728  0.35319  0.54062  Biso   1.000  C
  H19      1.0000 0.50844  0.35214  0.61747  Biso   1.000  H
  H20      1.0000 0.68122  0.32174  0.57404  Biso   1.000  H
  C25      1.0000 0.09155  0.98398  0.87138  Biso   1.000  C
  H21      1.0000 0.04929  0.07358  0.89159  Biso   1.000  H
  C26      1.0000 0.15664  0.81143  0.77430  Biso   1.000  C
  H22      1.0000 0.16521  0.74212  0.69366  Biso   1.000  H
  C27      1.0000 0.21516  0.81826  0.90555  Biso   1.000  C
  H23      1.0000 0.28319  0.75565  0.95966  Biso   1.000  H
  C28      1.0000 0.19954  0.97461  0.10338  Biso   1.000  C
  H24      1.0000 0.23597  0.08283  0.13220  Biso   1.000  H
  H25      1.0000 0.31340  0.94316  0.16208  Biso   1.000  H
  C29      1.0000 0.03774  0.92230  0.12634  Biso   1.000  C
  H26      1.0000 0.00753  0.81383  0.09842  Biso   1.000  H
  H27      1.0000 0.07741  0.95777  0.23349  Biso   1.000  H
  C30      1.0000 0.87347  0.96698  0.05359  Biso   1.000  C
  H28      1.0000 0.83401  0.93177  0.94645  Biso   1.000  H
  H29      1.0000 0.90326  0.07545  0.08190  Biso   1.000  H
  C31      1.0000 0.75709  0.07729  0.40525  Biso   1.000  C
  H30      1.0000 0.75101  0.14749  0.48638  Biso   1.000  H
  C32      1.0000 0.69576  0.06868  0.27349  Biso   1.000  C
  H31      1.0000 0.62670  0.12967  0.21803  Biso   1.000  H
  C33      1.0000 0.82137  0.90425  0.30831  Biso   1.000  C
  H32      1.0000 0.86397  0.81479  0.28835  Biso   1.000  H
  C34      1.0000 0.71129  0.91369  0.07573  Biso   1.000  C
  H33      1.0000 0.59774  0.94583  0.01762  Biso   1.000  H
  H34      1.0000 0.67479  0.80548  0.04511  Biso   1.000  H
  N1       1.0000 0.05925  0.36135  0.22091  Biso   1.000  N
  N2       1.0000 0.26116  0.28386  0.35028  Biso   1.000  N
  N3       1.0000 0.84644  0.52624  0.95822  Biso   1.000  N
  N4       1.0000 0.76920  0.58033  0.77263  Biso   1.000  N
  N5       1.0000 0.17275  0.92788  0.96506  Biso   1.000  N
  N6       1.0000 0.07844  0.91478  0.75373  Biso   1.000  N
  N7       1.0000 0.83613  0.97456  0.42614  Biso   1.000  N
  N8       1.0000 0.73789  0.95912  0.21411  Biso   1.000  N
  N9       1.0000 0.13217  0.59881  0.19896  Biso   1.000  N
  N10      1.0000 0.77420  0.28960  0.98071  Biso   1.000  N
  Ni1      1.0000 0.95771  0.94542  0.59028  Biso   1.000  Ni
  Ni2      1.0000 0.95243  0.44441  0.09030  Biso   1.000  Ni
  O1       1.0000 0.20200  0.43118  0.00482  Biso   1.000  O
  O2       1.0000 0.38867  0.61507  0.01613  Biso   1.000  O
  O3       1.0000 0.26391  0.01003  0.51016  Biso   1.000  O
  O4       1.0000 0.07276  0.83654  0.51194  Biso   1.000  O
  O5       1.0000 0.69638  0.45536  0.17218  Biso   1.000  O
  O6       1.0000 0.50648  0.27069  0.15541  Biso   1.000  O
  O7       1.0000 0.65042  0.87987  0.66926  Biso   1.000  O
  O8       1.0000 0.84192  0.05423  0.66894  Biso   1.000  O
