data_image0
_cell_length_a       6.14919
_cell_length_b       10.2697
_cell_length_c       11.7531
_cell_angle_alpha    89.9998
_cell_angle_beta     99.1127
_cell_angle_gamma    90.0022

_symmetry_space_group_name_H-M    "P 1"
_symmetry_int_tables_number       1

loop_
  _symmetry_equiv_pos_as_xyz
  'x, y, z'

loop_
  _atom_site_label
  _atom_site_occupancy
  _atom_site_fract_x
  _atom_site_fract_y
  _atom_site_fract_z
  _atom_site_thermal_displace_type
  _atom_site_B_iso_or_equiv
  _atom_site_type_symbol
  Ti1      1.0000 0.73146  0.71097  0.99299  Biso   1.000  Ti
  Ti2      1.0000 0.26832  0.21095  0.50703  Biso   1.000  Ti
  Ti3      1.0000 0.26835  0.28901  0.00703  Biso   1.000  Ti
  Ti4      1.0000 0.73145  0.78898  0.49299  Biso   1.000  Ti
  Ti5      1.0000 0.99992  0.99998  1.00000  Biso   1.000  Ti
  Ti6      1.0000 0.99992  0.49998  0.50000  Biso   1.000  Ti
  P1       1.0000 0.84607  0.84495  0.76721  Biso   1.000  P
  P2       1.0000 0.15374  0.34496  0.73281  Biso   1.000  P
  P3       1.0000 0.15375  0.15501  0.23279  Biso   1.000  P
  P4       1.0000 0.84607  0.65501  0.26721  Biso   1.000  P
  P5       1.0000 0.20106  0.72855  0.92896  Biso   1.000  P
  P6       1.0000 0.79873  0.22856  0.57107  Biso   1.000  P
  P7       1.0000 0.79877  0.27141  0.07106  Biso   1.000  P
  P8       1.0000 0.20107  0.77143  0.42896  Biso   1.000  P
  O1       1.0000 0.69364  0.75620  0.82517  Biso   1.000  O
  O2       1.0000 0.30612  0.25617  0.67485  Biso   1.000  O
  O3       1.0000 0.30615  0.24378  0.17485  Biso   1.000  O
  O4       1.0000 0.69362  0.74375  0.32516  Biso   1.000  O
  O5       1.0000 0.21997  0.86252  0.99066  Biso   1.000  O
  O6       1.0000 0.77987  0.36252  0.50934  Biso   1.000  O
  O7       1.0000 0.77990  0.13745  0.00934  Biso   1.000  O
  O8       1.0000 0.21998  0.63745  0.49067  Biso   1.000  O
  O9       1.0000 0.75031  0.87666  0.64125  Biso   1.000  O
  O10      1.0000 0.24960  0.37664  0.85876  Biso   1.000  O
  O11      1.0000 0.24961  0.12335  0.35876  Biso   1.000  O
  O12      1.0000 0.75027  0.62331  0.14125  Biso   1.000  O
  O13      1.0000 0.42300  0.65577  0.94936  Biso   1.000  O
  O14      1.0000 0.57677  0.15580  0.55069  Biso   1.000  O
  O15      1.0000 0.57681  0.34417  0.05069  Biso   1.000  O
  O16      1.0000 0.42302  0.84420  0.44937  Biso   1.000  O
  O17      1.0000 0.01781  0.64347  0.97056  Biso   1.000  O
  O18      1.0000 0.98194  0.14347  0.52944  Biso   1.000  O
  O19      1.0000 0.98199  0.35652  0.02945  Biso   1.000  O
  O20      1.0000 0.01783  0.85651  0.47057  Biso   1.000  O
  O21      1.0000 0.79407  0.86808  0.03841  Biso   1.000  O
  O22      1.0000 0.20569  0.36807  0.46163  Biso   1.000  O
  O23      1.0000 0.20573  0.13190  0.96163  Biso   1.000  O
  O24      1.0000 0.79404  0.63187  0.53841  Biso   1.000  O
  O25      1.0000 0.88988  0.97465  0.83557  Biso   1.000  O
  O26      1.0000 0.11000  0.47467  0.66444  Biso   1.000  O
  O27      1.0000 0.11000  0.02529  0.16444  Biso   1.000  O
  O28      1.0000 0.88987  0.52530  0.33557  Biso   1.000  O
  C1       1.0000 0.10724  0.76056  0.77815  Biso   1.000  C
  C2       1.0000 0.89251  0.26063  0.72187  Biso   1.000  C
  C3       1.0000 0.89252  0.23933  0.22187  Biso   1.000  C
  C4       1.0000 0.10725  0.73940  0.27815  Biso   1.000  C
  H1       1.0000 0.08385  0.66706  0.73235  Biso   1.000  H
  H2       1.0000 0.91582  0.16715  0.76771  Biso   1.000  H
  H3       1.0000 0.91586  0.33280  0.26772  Biso   1.000  H
  H4       1.0000 0.08383  0.83291  0.23235  Biso   1.000  H
  H5       1.0000 0.22765  0.81981  0.74181  Biso   1.000  H
  H6       1.0000 0.77209  0.31992  0.75817  Biso   1.000  H
  H7       1.0000 0.77210  0.18003  0.25815  Biso   1.000  H
  H8       1.0000 0.22765  0.68015  0.24181  Biso   1.000  H
