data_image0
_cell_length_a       12.3948
_cell_length_b       14.9255
_cell_length_c       14.1064
_cell_angle_alpha    90
_cell_angle_beta     101.672
_cell_angle_gamma    89.9975

_symmetry_space_group_name_H-M    "P 1"
_symmetry_int_tables_number       1

loop_
  _symmetry_equiv_pos_as_xyz
  'x, y, z'

loop_
  _atom_site_label
  _atom_site_occupancy
  _atom_site_fract_x
  _atom_site_fract_y
  _atom_site_fract_z
  _atom_site_thermal_displace_type
  _atom_site_B_iso_or_equiv
  _atom_site_type_symbol
  Al1      1.0000 0.00002  0.49999  0.50003  Biso   1.000  Al
  Al2      1.0000 0.00001  0.00001  0.00001  Biso   1.000  Al
  Al3      1.0000 0.50000  0.50001  0.49998  Biso   1.000  Al
  Al4      1.0000 0.50000  0.00000  0.99999  Biso   1.000  Al
  Al5      1.0000 0.26455  0.56128  0.56337  Biso   1.000  Al
  Al6      1.0000 0.73545  0.06124  0.93664  Biso   1.000  Al
  Al7      1.0000 0.73547  0.43875  0.43664  Biso   1.000  Al
  Al8      1.0000 0.26455  0.93876  0.06337  Biso   1.000  Al
  O1       1.0000 0.15075  0.47996  0.51733  Biso   1.000  O
  O2       1.0000 0.84930  0.97997  0.98278  Biso   1.000  O
  O3       1.0000 0.84929  0.52005  0.48273  Biso   1.000  O
  O4       1.0000 0.15072  0.02006  0.01728  Biso   1.000  O
  H1       1.0000 0.17013  0.43895  0.46992  Biso   1.000  H
  H2       1.0000 0.83002  0.93910  0.03035  Biso   1.000  H
  H3       1.0000 0.82991  0.56103  0.53016  Biso   1.000  H
  H4       1.0000 0.17010  0.06107  0.96988  Biso   1.000  H
  O5       1.0000 0.34766  0.51943  0.47527  Biso   1.000  O
  O6       1.0000 0.65234  0.01943  0.02475  Biso   1.000  O
  O7       1.0000 0.65233  0.48058  0.52472  Biso   1.000  O
  O8       1.0000 0.34768  0.98058  0.97529  Biso   1.000  O
  H5       1.0000 0.32306  0.54472  0.41113  Biso   1.000  H
  H6       1.0000 0.67692  0.04465  0.08892  Biso   1.000  H
  H7       1.0000 0.67693  0.45531  0.58887  Biso   1.000  H
  H8       1.0000 0.32310  0.95528  0.91115  Biso   1.000  H
  O9       1.0000 0.52897  0.61428  0.56273  Biso   1.000  O
  O10      1.0000 0.47102  0.11430  0.93728  Biso   1.000  O
  O11      1.0000 0.47103  0.38573  0.43725  Biso   1.000  O
  O12      1.0000 0.52897  0.88570  0.06269  Biso   1.000  O
  O13      1.0000 0.50271  0.94130  0.87856  Biso   1.000  O
  O14      1.0000 0.49728  0.44126  0.62139  Biso   1.000  O
  O15      1.0000 0.49725  0.05872  0.12140  Biso   1.000  O
  O16      1.0000 0.50269  0.55873  0.37856  Biso   1.000  O
  O17      1.0000 0.37250  0.64848  0.61702  Biso   1.000  O
  O18      1.0000 0.62750  0.14847  0.88299  Biso   1.000  O
  O19      1.0000 0.62754  0.35152  0.38301  Biso   1.000  O
  O20      1.0000 0.37249  0.85154  0.11699  Biso   1.000  O
  O21      1.0000 0.66919  0.97432  0.84153  Biso   1.000  O
  O22      1.0000 0.33088  0.47441  0.65851  Biso   1.000  O
  O23      1.0000 0.33081  0.02569  0.15848  Biso   1.000  O
  O24      1.0000 0.66914  0.52565  0.34151  Biso   1.000  O
  O25      1.0000 0.18559  0.60871  0.65472  Biso   1.000  O
  O26      1.0000 0.81434  0.10855  0.84518  Biso   1.000  O
  O27      1.0000 0.81439  0.39138  0.34524  Biso   1.000  O
  O28      1.0000 0.18563  0.89139  0.15478  Biso   1.000  O
  O29      1.0000 0.19950  0.85080  0.96713  Biso   1.000  O
  O30      1.0000 0.80051  0.35079  0.53290  Biso   1.000  O
  O31      1.0000 0.80048  0.14925  0.03283  Biso   1.000  O
  O32      1.0000 0.19951  0.64922  0.46710  Biso   1.000  O
  O33      1.0000 0.01371  0.54787  0.62746  Biso   1.000  O
  O34      1.0000 0.98631  0.04787  0.87259  Biso   1.000  O
  O35      1.0000 0.98634  0.45209  0.37262  Biso   1.000  O
  O36      1.0000 0.01370  0.95215  0.12744  Biso   1.000  O
  O37      1.0000 0.01500  0.87896  0.95053  Biso   1.000  O
  O38      1.0000 0.98501  0.37896  0.54953  Biso   1.000  O
  O39      1.0000 0.98499  0.12105  0.04951  Biso   1.000  O
  O40      1.0000 0.01502  0.62102  0.45049  Biso   1.000  O
  C1       1.0000 0.08881  0.60012  0.67160  Biso   1.000  C
  C2       1.0000 0.91116  0.10005  0.82838  Biso   1.000  C
  C3       1.0000 0.91120  0.39991  0.32842  Biso   1.000  C
  C4       1.0000 0.08884  0.89994  0.17162  Biso   1.000  C
  C5       1.0000 0.56497  0.85940  0.75773  Biso   1.000  C
  C6       1.0000 0.43508  0.35947  0.74233  Biso   1.000  C
  C7       1.0000 0.43512  0.14054  0.24235  Biso   1.000  C
  C8       1.0000 0.56492  0.64057  0.25766  Biso   1.000  C
  C9       1.0000 0.57916  0.93035  0.83118  Biso   1.000  C
  C10      1.0000 0.42088  0.43040  0.66883  Biso   1.000  C
  C11      1.0000 0.42086  0.06963  0.16883  Biso   1.000  C
  C12      1.0000 0.57912  0.56963  0.33115  Biso   1.000  C
  N1       1.0000 0.64648  0.84165  0.70725  Biso   1.000  N
  N2       1.0000 0.35359  0.34176  0.79283  Biso   1.000  N
  N3       1.0000 0.35362  0.15827  0.29285  Biso   1.000  N
  N4       1.0000 0.64639  0.65827  0.20713  Biso   1.000  N
  H9       1.0000 0.71699  0.87776  0.71192  Biso   1.000  H
  H10      1.0000 0.28306  0.37786  0.78811  Biso   1.000  H
  H11      1.0000 0.28310  0.12216  0.28815  Biso   1.000  H
  H12      1.0000 0.71690  0.62215  0.21180  Biso   1.000  H
  C13      1.0000 0.06293  0.65937  0.74767  Biso   1.000  C
  C14      1.0000 0.93705  0.15933  0.75233  Biso   1.000  C
  C15      1.0000 0.93706  0.34065  0.25234  Biso   1.000  C
  C16      1.0000 0.06295  0.84067  0.24768  Biso   1.000  C
  N5       1.0000 0.95761  0.67226  0.75813  Biso   1.000  N
  N6       1.0000 0.04238  0.17223  0.74190  Biso   1.000  N
  N7       1.0000 0.04238  0.32772  0.24190  Biso   1.000  N
  N8       1.0000 0.95761  0.82776  0.25810  Biso   1.000  N
  N9       1.0000 0.62499  0.77152  0.64755  Biso   1.000  N
  N10      1.0000 0.37505  0.27160  0.85250  Biso   1.000  N
  N11      1.0000 0.37508  0.22843  0.35251  Biso   1.000  N
  N12      1.0000 0.62491  0.72841  0.14744  Biso   1.000  N
  C17      1.0000 0.52474  0.74270  0.65938  Biso   1.000  C
  C18      1.0000 0.47528  0.24274  0.84065  Biso   1.000  C
  C19      1.0000 0.47532  0.25727  0.34066  Biso   1.000  C
  C20      1.0000 0.52469  0.75727  0.15931  Biso   1.000  C
  N13      1.0000 0.96606  0.73591  0.82589  Biso   1.000  N
  N14      1.0000 0.03395  0.23589  0.67416  Biso   1.000  N
  N15      1.0000 0.03392  0.26407  0.17414  Biso   1.000  N
  N16      1.0000 0.96605  0.76409  0.32584  Biso   1.000  N
  H13      1.0000 0.89791  0.75953  0.84759  Biso   1.000  H
  H14      1.0000 0.10212  0.25950  0.65249  Biso   1.000  H
  H15      1.0000 0.10207  0.24047  0.15243  Biso   1.000  H
  H16      1.0000 0.89788  0.74049  0.34751  Biso   1.000  H
  C21      1.0000 0.13759  0.71467  0.81064  Biso   1.000  C
  C22      1.0000 0.86240  0.21465  0.68936  Biso   1.000  C
  C23      1.0000 0.86238  0.28536  0.18935  Biso   1.000  C
  C24      1.0000 0.13760  0.78536  0.31067  Biso   1.000  C
  H17      1.0000 0.22598  0.71884  0.81766  Biso   1.000  H
  H18      1.0000 0.77401  0.21882  0.68230  Biso   1.000  H
  H19      1.0000 0.77399  0.28122  0.18232  Biso   1.000  H
  H20      1.0000 0.22599  0.78121  0.31773  Biso   1.000  H
  C25      1.0000 0.47178  0.66254  0.60821  Biso   1.000  C
  C26      1.0000 0.52822  0.16255  0.89180  Biso   1.000  C
  C27      1.0000 0.52825  0.33746  0.39181  Biso   1.000  C
  C28      1.0000 0.47175  0.83745  0.10816  Biso   1.000  C
  C29      1.0000 0.09785  0.83664  0.93174  Biso   1.000  C
  C30      1.0000 0.90216  0.33663  0.56831  Biso   1.000  C
  C31      1.0000 0.90213  0.16339  0.06826  Biso   1.000  C
  C32      1.0000 0.09785  0.66337  0.43171  Biso   1.000  C
  C33      1.0000 0.07229  0.76389  0.86064  Biso   1.000  C
  C34      1.0000 0.92772  0.26387  0.63939  Biso   1.000  C
  C35      1.0000 0.92768  0.23612  0.13937  Biso   1.000  C
  C36      1.0000 0.07228  0.73612  0.36063  Biso   1.000  C
  C37      1.0000 0.48376  0.79568  0.72726  Biso   1.000  C
  C38      1.0000 0.51626  0.29572  0.77277  Biso   1.000  C
  C39      1.0000 0.51630  0.20428  0.27279  Biso   1.000  C
  C40      1.0000 0.48373  0.70431  0.22722  Biso   1.000  C
  H21      1.0000 0.40679  0.78764  0.75124  Biso   1.000  H
  H22      1.0000 0.59320  0.28770  0.74873  Biso   1.000  H
  H23      1.0000 0.59324  0.21233  0.24875  Biso   1.000  H
  H24      1.0000 0.40680  0.71239  0.25126  Biso   1.000  H
