data_image0
_cell_length_a       20.8872
_cell_length_b       20.8872
_cell_length_c       17.7327
_cell_angle_alpha    90
_cell_angle_beta     90
_cell_angle_gamma    90

_symmetry_space_group_name_H-M    "P 1"
_symmetry_int_tables_number       1

loop_
  _symmetry_equiv_pos_as_xyz
  'x, y, z'

loop_
  _atom_site_label
  _atom_site_occupancy
  _atom_site_fract_x
  _atom_site_fract_y
  _atom_site_fract_z
  _atom_site_thermal_displace_type
  _atom_site_B_iso_or_equiv
  _atom_site_type_symbol
  Zr1      1.0000 0.00000  0.00000  0.13514  Biso   1.000  Zr
  Zr2      1.0000 0.00000  0.00000  0.86486  Biso   1.000  Zr
  Zr3      1.0000 0.50000  0.50000  0.63515  Biso   1.000  Zr
  Zr4      1.0000 0.50000  0.50000  0.36485  Biso   1.000  Zr
  O1       1.0000 0.93107  0.93107  0.19482  Biso   1.000  O
  O2       1.0000 0.06893  0.06893  0.19482  Biso   1.000  O
  O3       1.0000 0.93107  0.06893  0.80518  Biso   1.000  O
  O4       1.0000 0.06893  0.93107  0.80518  Biso   1.000  O
  O5       1.0000 0.06893  0.06893  0.80518  Biso   1.000  O
  O6       1.0000 0.93107  0.93107  0.80518  Biso   1.000  O
  O7       1.0000 0.93107  0.06893  0.19482  Biso   1.000  O
  O8       1.0000 0.06893  0.93107  0.19482  Biso   1.000  O
  O9       1.0000 0.43106  0.43106  0.69483  Biso   1.000  O
  O10      1.0000 0.56894  0.56894  0.69483  Biso   1.000  O
  O11      1.0000 0.43106  0.56894  0.30517  Biso   1.000  O
  O12      1.0000 0.56894  0.43106  0.30517  Biso   1.000  O
  O13      1.0000 0.56894  0.56894  0.30517  Biso   1.000  O
  O14      1.0000 0.43106  0.43106  0.30517  Biso   1.000  O
  O15      1.0000 0.43106  0.56894  0.69483  Biso   1.000  O
  O16      1.0000 0.56894  0.43106  0.69483  Biso   1.000  O
  O17      1.0000 1.00000  0.91350  0.06909  Biso   1.000  O
  O18      1.0000 0.00000  0.08650  0.06909  Biso   1.000  O
  O19      1.0000 0.00000  0.08650  0.93091  Biso   1.000  O
  O20      1.0000 1.00000  0.91350  0.93091  Biso   1.000  O
  O21      1.0000 0.08650  0.00000  0.93091  Biso   1.000  O
  O22      1.0000 0.91350  0.00000  0.93091  Biso   1.000  O
  O23      1.0000 0.91350  1.00000  0.06909  Biso   1.000  O
  O24      1.0000 0.08650  0.00000  0.06909  Biso   1.000  O
  O25      1.0000 0.50000  0.41351  0.56910  Biso   1.000  O
  O26      1.0000 0.50000  0.58649  0.56910  Biso   1.000  O
  O27      1.0000 0.50000  0.58649  0.43090  Biso   1.000  O
  O28      1.0000 0.50000  0.41351  0.43090  Biso   1.000  O
  O29      1.0000 0.58649  0.50000  0.43090  Biso   1.000  O
  O30      1.0000 0.41351  0.50000  0.43090  Biso   1.000  O
  O31      1.0000 0.41351  0.50000  0.56910  Biso   1.000  O
  O32      1.0000 0.58649  0.50000  0.56910  Biso   1.000  O
  C1       1.0000 0.89066  0.89066  0.17020  Biso   1.000  C
  C2       1.0000 0.10934  0.10934  0.17020  Biso   1.000  C
  C3       1.0000 0.89066  0.10934  0.82980  Biso   1.000  C
  C4       1.0000 0.10934  0.89066  0.82980  Biso   1.000  C
  C5       1.0000 0.10934  0.10934  0.82980  Biso   1.000  C
  C6       1.0000 0.89066  0.89066  0.82980  Biso   1.000  C
  C7       1.0000 0.89066  0.10934  0.17020  Biso   1.000  C
  C8       1.0000 0.10934  0.89066  0.17020  Biso   1.000  C
  C9       1.0000 0.39065  0.39065  0.67020  Biso   1.000  C
  C10      1.0000 0.60935  0.60935  0.67020  Biso   1.000  C
  C11      1.0000 0.39065  0.60935  0.32980  Biso   1.000  C
  C12      1.0000 0.60935  0.39065  0.32980  Biso   1.000  C
  C13      1.0000 0.60935  0.60935  0.32980  Biso   1.000  C
  C14      1.0000 0.39065  0.39065  0.32980  Biso   1.000  C
  C15      1.0000 0.39065  0.60935  0.67020  Biso   1.000  C
  C16      1.0000 0.60935  0.39065  0.67020  Biso   1.000  C
  C17      1.0000 0.85343  0.85343  0.22756  Biso   1.000  C
  C18      1.0000 0.14657  0.14657  0.22756  Biso   1.000  C
  C19      1.0000 0.85343  0.14657  0.77244  Biso   1.000  C
  C20      1.0000 0.14657  0.85343  0.77244  Biso   1.000  C
  C21      1.0000 0.14657  0.14657  0.77244  Biso   1.000  C
  C22      1.0000 0.85343  0.85343  0.77244  Biso   1.000  C
  C23      1.0000 0.85343  0.14657  0.22756  Biso   1.000  C
  C24      1.0000 0.14657  0.85343  0.22756  Biso   1.000  C
  C25      1.0000 0.35342  0.35342  0.72756  Biso   1.000  C
  C26      1.0000 0.64658  0.64658  0.72756  Biso   1.000  C
  C27      1.0000 0.35342  0.64658  0.27244  Biso   1.000  C
  C28      1.0000 0.64658  0.35342  0.27244  Biso   1.000  C
  C29      1.0000 0.64658  0.64658  0.27244  Biso   1.000  C
  C30      1.0000 0.35342  0.35342  0.27244  Biso   1.000  C
  C31      1.0000 0.35342  0.64658  0.72756  Biso   1.000  C
  C32      1.0000 0.64658  0.35342  0.72756  Biso   1.000  C
  N1       1.0000 0.78387  0.78387  0.33533  Biso   1.000  N
  N2       1.0000 0.21613  0.21613  0.33533  Biso   1.000  N
  N3       1.0000 0.78387  0.21613  0.66467  Biso   1.000  N
  N4       1.0000 0.21613  0.78387  0.66467  Biso   1.000  N
  N5       1.0000 0.21613  0.21613  0.66467  Biso   1.000  N
  N6       1.0000 0.78387  0.78387  0.66467  Biso   1.000  N
  N7       1.0000 0.78387  0.21613  0.33533  Biso   1.000  N
  N8       1.0000 0.21613  0.78387  0.33533  Biso   1.000  N
  N9       1.0000 0.28384  0.28384  0.83530  Biso   1.000  N
  N10      1.0000 0.71616  0.71616  0.83530  Biso   1.000  N
  N11      1.0000 0.28384  0.71616  0.16470  Biso   1.000  N
  N12      1.0000 0.71616  0.28384  0.16470  Biso   1.000  N
  N13      1.0000 0.71616  0.71616  0.16470  Biso   1.000  N
  N14      1.0000 0.28384  0.28384  0.16470  Biso   1.000  N
  N15      1.0000 0.28384  0.71616  0.83530  Biso   1.000  N
  N16      1.0000 0.71616  0.28384  0.83530  Biso   1.000  N
  C33      1.0000 0.80812  0.80812  0.20522  Biso   1.000  C
  C34      1.0000 0.19188  0.19188  0.20522  Biso   1.000  C
  C35      1.0000 0.80812  0.19188  0.79478  Biso   1.000  C
  C36      1.0000 0.19188  0.80812  0.79478  Biso   1.000  C
  C37      1.0000 0.19188  0.19188  0.79478  Biso   1.000  C
  C38      1.0000 0.80812  0.80812  0.79478  Biso   1.000  C
  C39      1.0000 0.80812  0.19188  0.20522  Biso   1.000  C
  C40      1.0000 0.19188  0.80812  0.20522  Biso   1.000  C
  C41      1.0000 0.30811  0.30811  0.70520  Biso   1.000  C
  C42      1.0000 0.69189  0.69189  0.70520  Biso   1.000  C
  C43      1.0000 0.30811  0.69189  0.29480  Biso   1.000  C
  C44      1.0000 0.69189  0.30811  0.29480  Biso   1.000  C
  C45      1.0000 0.69189  0.69189  0.29480  Biso   1.000  C
  C46      1.0000 0.30811  0.30811  0.29480  Biso   1.000  C
  C47      1.0000 0.30811  0.69189  0.70520  Biso   1.000  C
  C48      1.0000 0.69189  0.30811  0.70520  Biso   1.000  C
  H1       1.0000 0.79869  0.79869  0.14601  Biso   1.000  H
  H2       1.0000 0.20131  0.20131  0.14601  Biso   1.000  H
  H3       1.0000 0.79869  0.20131  0.85399  Biso   1.000  H
  H4       1.0000 0.20131  0.79869  0.85399  Biso   1.000  H
  H5       1.0000 0.20131  0.20131  0.85399  Biso   1.000  H
  H6       1.0000 0.79869  0.79869  0.85399  Biso   1.000  H
  H7       1.0000 0.79869  0.20131  0.14601  Biso   1.000  H
  H8       1.0000 0.20131  0.79869  0.14601  Biso   1.000  H
  H9       1.0000 0.29869  0.29869  0.64599  Biso   1.000  H
  H10      1.0000 0.70131  0.70131  0.64599  Biso   1.000  H
  H11      1.0000 0.29869  0.70131  0.35401  Biso   1.000  H
  H12      1.0000 0.70131  0.29869  0.35401  Biso   1.000  H
  H13      1.0000 0.70131  0.70131  0.35401  Biso   1.000  H
  H14      1.0000 0.29869  0.29869  0.35401  Biso   1.000  H
  H15      1.0000 0.29869  0.70131  0.64599  Biso   1.000  H
  H16      1.0000 0.70131  0.29869  0.64599  Biso   1.000  H
  C49      1.0000 0.86353  0.86353  0.30478  Biso   1.000  C
  C50      1.0000 0.13647  0.13647  0.30478  Biso   1.000  C
  C51      1.0000 0.86353  0.13647  0.69522  Biso   1.000  C
  C52      1.0000 0.13647  0.86353  0.69522  Biso   1.000  C
  C53      1.0000 0.13647  0.13647  0.69522  Biso   1.000  C
  C54      1.0000 0.86353  0.86353  0.69522  Biso   1.000  C
  C55      1.0000 0.86353  0.13647  0.30478  Biso   1.000  C
  C56      1.0000 0.13647  0.86353  0.30478  Biso   1.000  C
  C57      1.0000 0.36351  0.36351  0.80478  Biso   1.000  C
  C58      1.0000 0.63649  0.63649  0.80478  Biso   1.000  C
  C59      1.0000 0.36351  0.63649  0.19522  Biso   1.000  C
  C60      1.0000 0.63649  0.36351  0.19522  Biso   1.000  C
  C61      1.0000 0.63649  0.63649  0.19522  Biso   1.000  C
  C62      1.0000 0.36351  0.36351  0.19522  Biso   1.000  C
  C63      1.0000 0.36351  0.63649  0.80478  Biso   1.000  C
  C64      1.0000 0.63649  0.36351  0.80478  Biso   1.000  C
  H17      1.0000 0.89858  0.89858  0.32350  Biso   1.000  H
  H18      1.0000 0.10142  0.10142  0.32350  Biso   1.000  H
  H19      1.0000 0.89858  0.10142  0.67650  Biso   1.000  H
  H20      1.0000 0.10142  0.89858  0.67650  Biso   1.000  H
  H21      1.0000 0.10142  0.10142  0.67650  Biso   1.000  H
  H22      1.0000 0.89858  0.89858  0.67650  Biso   1.000  H
  H23      1.0000 0.89858  0.10142  0.32350  Biso   1.000  H
  H24      1.0000 0.10142  0.89858  0.32350  Biso   1.000  H
  H25      1.0000 0.39855  0.39855  0.82351  Biso   1.000  H
  H26      1.0000 0.60145  0.60145  0.82351  Biso   1.000  H
  H27      1.0000 0.39855  0.60145  0.17649  Biso   1.000  H
  H28      1.0000 0.60145  0.39855  0.17649  Biso   1.000  H
  H29      1.0000 0.60145  0.60145  0.17649  Biso   1.000  H
  H30      1.0000 0.39855  0.39855  0.17649  Biso   1.000  H
  H31      1.0000 0.39855  0.60145  0.82351  Biso   1.000  H
  H32      1.0000 0.60145  0.39855  0.82351  Biso   1.000  H
  C65      1.0000 0.82759  0.82759  0.35586  Biso   1.000  C
  C66      1.0000 0.17241  0.17241  0.35586  Biso   1.000  C
  C67      1.0000 0.82759  0.17241  0.64414  Biso   1.000  C
  C68      1.0000 0.17241  0.82759  0.64414  Biso   1.000  C
  C69      1.0000 0.17241  0.17241  0.64414  Biso   1.000  C
  C70      1.0000 0.82759  0.82759  0.64414  Biso   1.000  C
  C71      1.0000 0.82759  0.17241  0.35586  Biso   1.000  C
  C72      1.0000 0.17241  0.82759  0.35586  Biso   1.000  C
  C73      1.0000 0.32756  0.32756  0.85585  Biso   1.000  C
  C74      1.0000 0.67244  0.67244  0.85585  Biso   1.000  C
  C75      1.0000 0.32756  0.67244  0.14415  Biso   1.000  C
  C76      1.0000 0.67244  0.32756  0.14415  Biso   1.000  C
  C77      1.0000 0.67244  0.67244  0.14415  Biso   1.000  C
  C78      1.0000 0.32756  0.32756  0.14415  Biso   1.000  C
  C79      1.0000 0.32756  0.67244  0.85585  Biso   1.000  C
  C80      1.0000 0.67244  0.32756  0.85585  Biso   1.000  C
  H33      1.0000 0.83402  0.83402  0.41643  Biso   1.000  H
  H34      1.0000 0.16598  0.16598  0.41643  Biso   1.000  H
  H35      1.0000 0.83402  0.16598  0.58357  Biso   1.000  H
  H36      1.0000 0.16598  0.83402  0.58357  Biso   1.000  H
  H37      1.0000 0.16598  0.16598  0.58357  Biso   1.000  H
  H38      1.0000 0.83402  0.83402  0.58357  Biso   1.000  H
  H39      1.0000 0.83402  0.16598  0.41643  Biso   1.000  H
  H40      1.0000 0.16598  0.83402  0.41643  Biso   1.000  H
  H41      1.0000 0.33398  0.33398  0.91642  Biso   1.000  H
  H42      1.0000 0.66602  0.66602  0.91642  Biso   1.000  H
  H43      1.0000 0.33398  0.66602  0.08358  Biso   1.000  H
  H44      1.0000 0.66602  0.33398  0.08358  Biso   1.000  H
  H45      1.0000 0.66602  0.66602  0.08358  Biso   1.000  H
  H46      1.0000 0.33398  0.33398  0.08358  Biso   1.000  H
  H47      1.0000 0.33398  0.66602  0.91642  Biso   1.000  H
  H48      1.0000 0.66602  0.33398  0.91642  Biso   1.000  H
  C81      1.0000 0.77433  0.77433  0.26083  Biso   1.000  C
  C82      1.0000 0.22567  0.22567  0.26083  Biso   1.000  C
  C83      1.0000 0.77433  0.22567  0.73917  Biso   1.000  C
  C84      1.0000 0.22567  0.77433  0.73917  Biso   1.000  C
  C85      1.0000 0.22567  0.22567  0.73917  Biso   1.000  C
  C86      1.0000 0.77433  0.77433  0.73917  Biso   1.000  C
  C87      1.0000 0.77433  0.22567  0.26083  Biso   1.000  C
  C88      1.0000 0.22567  0.77433  0.26083  Biso   1.000  C
  C89      1.0000 0.27431  0.27431  0.76080  Biso   1.000  C
  C90      1.0000 0.72569  0.72569  0.76080  Biso   1.000  C
  C91      1.0000 0.27431  0.72569  0.23920  Biso   1.000  C
  C92      1.0000 0.72569  0.27431  0.23920  Biso   1.000  C
  C93      1.0000 0.72569  0.72569  0.23920  Biso   1.000  C
  C94      1.0000 0.27431  0.27431  0.23920  Biso   1.000  C
  C95      1.0000 0.27431  0.72569  0.76080  Biso   1.000  C
  C96      1.0000 0.72569  0.27431  0.76080  Biso   1.000  C
  O33      1.0000 0.87812  0.87812  0.10016  Biso   1.000  O
  O34      1.0000 0.12188  0.12188  0.10016  Biso   1.000  O
  O35      1.0000 0.87812  0.12188  0.89984  Biso   1.000  O
  O36      1.0000 0.12188  0.87812  0.89984  Biso   1.000  O
  O37      1.0000 0.12188  0.12188  0.89984  Biso   1.000  O
  O38      1.0000 0.87812  0.87812  0.89984  Biso   1.000  O
  O39      1.0000 0.87812  0.12188  0.10016  Biso   1.000  O
  O40      1.0000 0.12188  0.87812  0.10016  Biso   1.000  O
  O41      1.0000 0.37812  0.37812  0.60017  Biso   1.000  O
  O42      1.0000 0.62188  0.62188  0.60017  Biso   1.000  O
  O43      1.0000 0.37812  0.62188  0.39983  Biso   1.000  O
  O44      1.0000 0.62188  0.37812  0.39983  Biso   1.000  O
  O45      1.0000 0.62188  0.62188  0.39983  Biso   1.000  O
  O46      1.0000 0.37812  0.37812  0.39983  Biso   1.000  O
  O47      1.0000 0.37812  0.62188  0.60017  Biso   1.000  O
  O48      1.0000 0.62188  0.37812  0.60017  Biso   1.000  O
  Zr5      1.0000 0.92146  0.92146  1.00000  Biso   1.000  Zr
  Zr6      1.0000 0.07854  0.07854  1.00000  Biso   1.000  Zr
  Zr7      1.0000 0.92146  0.07854  0.00000  Biso   1.000  Zr
  Zr8      1.0000 0.07854  0.92146  0.00000  Biso   1.000  Zr
  Zr9      1.0000 0.42146  0.42146  0.50000  Biso   1.000  Zr
  Zr10     1.0000 0.57854  0.57854  0.50000  Biso   1.000  Zr
  Zr11     1.0000 0.42146  0.57854  0.50000  Biso   1.000  Zr
  Zr12     1.0000 0.57854  0.42146  0.50000  Biso   1.000  Zr
