data_image0
_cell_length_a       21.9898
_cell_length_b       32.9016
_cell_length_c       21.4029
_cell_angle_alpha    90
_cell_angle_beta     90
_cell_angle_gamma    90

_symmetry_space_group_name_H-M    "P 1"
_symmetry_int_tables_number       1

loop_
  _symmetry_equiv_pos_as_xyz
  'x, y, z'

loop_
  _atom_site_label
  _atom_site_occupancy
  _atom_site_fract_x
  _atom_site_fract_y
  _atom_site_fract_z
  _atom_site_thermal_displace_type
  _atom_site_B_iso_or_equiv
  _atom_site_type_symbol
  Hf1      1.0000 1.00000  0.07159  0.50000  Biso   1.000  Hf
  Hf2      1.0000 1.00000  0.92841  0.50000  Biso   1.000  Hf
  Hf3      1.0000 0.50000  0.57150  0.50000  Biso   1.000  Hf
  Hf4      1.0000 0.50000  0.42850  0.50000  Biso   1.000  Hf
  Hf5      1.0000 0.07359  0.00000  0.42434  Biso   1.000  Hf
  Hf6      1.0000 0.92641  1.00000  0.42434  Biso   1.000  Hf
  Hf7      1.0000 0.92641  0.00000  0.57566  Biso   1.000  Hf
  Hf8      1.0000 0.07359  0.00000  0.57566  Biso   1.000  Hf
  Hf9      1.0000 0.57347  0.50000  0.42408  Biso   1.000  Hf
  Hf10     1.0000 0.42653  0.50000  0.42408  Biso   1.000  Hf
  Hf11     1.0000 0.42653  0.50000  0.57592  Biso   1.000  Hf
  Hf12     1.0000 0.57347  0.50000  0.57592  Biso   1.000  Hf
  O1       1.0000 0.08132  0.03660  0.50000  Biso   1.000  O
  O2       1.0000 0.91868  0.96340  0.50000  Biso   1.000  O
  O3       1.0000 0.91868  0.03660  0.50000  Biso   1.000  O
  O4       1.0000 0.08132  0.96340  0.50000  Biso   1.000  O
  O5       1.0000 0.58078  0.53648  0.50000  Biso   1.000  O
  O6       1.0000 0.41922  0.46352  0.50000  Biso   1.000  O
  O7       1.0000 0.41922  0.53648  0.50000  Biso   1.000  O
  O8       1.0000 0.58078  0.46352  0.50000  Biso   1.000  O
  O9       1.0000 0.06427  0.10327  0.43433  Biso   1.000  O
  O10      1.0000 0.93573  0.89673  0.43433  Biso   1.000  O
  O11      1.0000 0.93573  0.10327  0.56567  Biso   1.000  O
  O12      1.0000 0.06427  0.89673  0.56567  Biso   1.000  O
  O13      1.0000 0.56460  0.60313  0.43436  Biso   1.000  O
  O14      1.0000 0.43540  0.39687  0.43436  Biso   1.000  O
  O15      1.0000 0.43540  0.60313  0.56564  Biso   1.000  O
  O16      1.0000 0.56460  0.39687  0.56564  Biso   1.000  O
  O17      1.0000 0.93573  0.89673  0.56567  Biso   1.000  O
  O18      1.0000 0.06427  0.10327  0.56567  Biso   1.000  O
  O19      1.0000 0.06427  0.89673  0.43433  Biso   1.000  O
  O20      1.0000 0.93573  0.10327  0.43433  Biso   1.000  O
  O21      1.0000 0.43540  0.39687  0.56564  Biso   1.000  O
  O22      1.0000 0.56460  0.60313  0.56564  Biso   1.000  O
  O23      1.0000 0.56460  0.39687  0.43436  Biso   1.000  O
  O24      1.0000 0.43540  0.60313  0.43436  Biso   1.000  O
  O25      1.0000 1.00000  0.03662  0.41639  Biso   1.000  O
  O26      1.0000 1.00000  0.96338  0.41639  Biso   1.000  O
  O27      1.0000 1.00000  0.03662  0.58361  Biso   1.000  O
  O28      1.0000 1.00000  0.96338  0.58361  Biso   1.000  O
  O29      1.0000 0.50000  0.53670  0.41578  Biso   1.000  O
  O30      1.0000 0.50000  0.46330  0.41578  Biso   1.000  O
  O31      1.0000 0.50000  0.53670  0.58422  Biso   1.000  O
  O32      1.0000 0.50000  0.46330  0.58422  Biso   1.000  O
  O33      1.0000 0.11474  0.05269  0.38125  Biso   1.000  O
  O34      1.0000 0.88526  0.94731  0.38125  Biso   1.000  O
  O35      1.0000 0.88526  0.05269  0.61875  Biso   1.000  O
  O36      1.0000 0.11474  0.94731  0.61875  Biso   1.000  O
  O37      1.0000 0.61539  0.55259  0.38146  Biso   1.000  O
  O38      1.0000 0.38461  0.44741  0.38146  Biso   1.000  O
  O39      1.0000 0.38461  0.55259  0.61854  Biso   1.000  O
  O40      1.0000 0.61539  0.44741  0.61854  Biso   1.000  O
  O41      1.0000 0.88526  0.94731  0.61875  Biso   1.000  O
  O42      1.0000 0.11474  0.05269  0.61875  Biso   1.000  O
  O43      1.0000 0.11474  0.94731  0.38125  Biso   1.000  O
  O44      1.0000 0.88526  0.05269  0.38125  Biso   1.000  O
  O45      1.0000 0.38461  0.44741  0.61854  Biso   1.000  O
  O46      1.0000 0.61539  0.55259  0.61854  Biso   1.000  O
  O47      1.0000 0.61539  0.44741  0.38146  Biso   1.000  O
  O48      1.0000 0.38461  0.55259  0.38146  Biso   1.000  O
  C1       1.0000 0.10247  0.09049  0.39415  Biso   1.000  C
  C2       1.0000 0.89753  0.90951  0.39415  Biso   1.000  C
  C3       1.0000 0.89753  0.09049  0.60585  Biso   1.000  C
  C4       1.0000 0.10247  0.90951  0.60585  Biso   1.000  C
  C5       1.0000 0.60279  0.59039  0.39416  Biso   1.000  C
  C6       1.0000 0.39721  0.40961  0.39416  Biso   1.000  C
  C7       1.0000 0.39721  0.59039  0.60584  Biso   1.000  C
  C8       1.0000 0.60279  0.40961  0.60584  Biso   1.000  C
  C9       1.0000 0.89753  0.90951  0.60585  Biso   1.000  C
  C10      1.0000 0.10247  0.09049  0.60585  Biso   1.000  C
  C11      1.0000 0.10247  0.90951  0.39415  Biso   1.000  C
  C12      1.0000 0.89753  0.09049  0.39415  Biso   1.000  C
  C13      1.0000 0.39721  0.40961  0.60584  Biso   1.000  C
  C14      1.0000 0.60279  0.59039  0.60584  Biso   1.000  C
  C15      1.0000 0.60279  0.40961  0.39416  Biso   1.000  C
  C16      1.0000 0.39721  0.59039  0.39416  Biso   1.000  C
  C17      1.0000 0.13592  0.12214  0.35810  Biso   1.000  C
  C18      1.0000 0.86408  0.87786  0.35810  Biso   1.000  C
  C19      1.0000 0.86408  0.12214  0.64190  Biso   1.000  C
  C20      1.0000 0.13592  0.87786  0.64190  Biso   1.000  C
  C21      1.0000 0.63597  0.62206  0.35791  Biso   1.000  C
  C22      1.0000 0.36403  0.37794  0.35791  Biso   1.000  C
  C23      1.0000 0.36403  0.62206  0.64209  Biso   1.000  C
  C24      1.0000 0.63597  0.37794  0.64209  Biso   1.000  C
  C25      1.0000 0.86408  0.87786  0.64190  Biso   1.000  C
  C26      1.0000 0.13592  0.12214  0.64190  Biso   1.000  C
  C27      1.0000 0.13592  0.87786  0.35810  Biso   1.000  C
  C28      1.0000 0.86408  0.12214  0.35810  Biso   1.000  C
  C29      1.0000 0.36403  0.37794  0.64209  Biso   1.000  C
  C30      1.0000 0.63597  0.62206  0.64209  Biso   1.000  C
  C31      1.0000 0.63597  0.37794  0.35791  Biso   1.000  C
  C32      1.0000 0.36403  0.62206  0.35791  Biso   1.000  C
  C33      1.0000 0.17222  0.11219  0.30635  Biso   1.000  C
  C34      1.0000 0.82778  0.88781  0.30635  Biso   1.000  C
  C35      1.0000 0.82778  0.11219  0.69365  Biso   1.000  C
  C36      1.0000 0.17222  0.88781  0.69365  Biso   1.000  C
  C37      1.0000 0.67230  0.61217  0.30618  Biso   1.000  C
  C38      1.0000 0.32770  0.38783  0.30618  Biso   1.000  C
  C39      1.0000 0.32770  0.61217  0.69382  Biso   1.000  C
  C40      1.0000 0.67230  0.38783  0.69382  Biso   1.000  C
  C41      1.0000 0.82778  0.88781  0.69365  Biso   1.000  C
  C42      1.0000 0.17222  0.11219  0.69365  Biso   1.000  C
  C43      1.0000 0.17222  0.88781  0.30635  Biso   1.000  C
  C44      1.0000 0.82778  0.11219  0.30635  Biso   1.000  C
  C45      1.0000 0.32770  0.38783  0.69382  Biso   1.000  C
  C46      1.0000 0.67230  0.61217  0.69382  Biso   1.000  C
  C47      1.0000 0.67230  0.38783  0.30618  Biso   1.000  C
  C48      1.0000 0.32770  0.61217  0.30618  Biso   1.000  C
  H1       1.0000 0.17754  0.08041  0.29344  Biso   1.000  H
  H2       1.0000 0.82246  0.91959  0.29344  Biso   1.000  H
  H3       1.0000 0.82246  0.08041  0.70656  Biso   1.000  H
  H4       1.0000 0.17754  0.91959  0.70656  Biso   1.000  H
  H5       1.0000 0.67769  0.58041  0.29327  Biso   1.000  H
  H6       1.0000 0.32230  0.41959  0.29327  Biso   1.000  H
  H7       1.0000 0.32231  0.58041  0.70673  Biso   1.000  H
  H8       1.0000 0.67770  0.41959  0.70673  Biso   1.000  H
  H9       1.0000 0.82246  0.91959  0.70656  Biso   1.000  H
  H10      1.0000 0.17754  0.08041  0.70656  Biso   1.000  H
  H11      1.0000 0.17754  0.91959  0.29344  Biso   1.000  H
  H12      1.0000 0.82246  0.08041  0.29344  Biso   1.000  H
  H13      1.0000 0.32230  0.41959  0.70673  Biso   1.000  H
  H14      1.0000 0.67769  0.58041  0.70673  Biso   1.000  H
  H15      1.0000 0.67769  0.41959  0.29327  Biso   1.000  H
  H16      1.0000 0.32231  0.58041  0.29327  Biso   1.000  H
  C49      1.0000 0.25005  0.24998  0.28548  Biso   1.000  C
  C50      1.0000 0.74995  0.75002  0.28549  Biso   1.000  C
  C51      1.0000 0.74995  0.24998  0.71452  Biso   1.000  C
  C52      1.0000 0.25005  0.75002  0.71452  Biso   1.000  C
  C53      1.0000 0.74995  0.75002  0.71452  Biso   1.000  C
  C54      1.0000 0.25005  0.24998  0.71452  Biso   1.000  C
  C55      1.0000 0.25005  0.75002  0.28549  Biso   1.000  C
  C56      1.0000 0.74995  0.24998  0.28548  Biso   1.000  C
  H17      1.0000 0.25005  0.25000  0.33630  Biso   1.000  H
  H18      1.0000 0.74995  0.75000  0.33630  Biso   1.000  H
  H19      1.0000 0.74995  0.25000  0.66370  Biso   1.000  H
  H20      1.0000 0.25005  0.75000  0.66370  Biso   1.000  H
  H21      1.0000 0.74995  0.75000  0.66370  Biso   1.000  H
  H22      1.0000 0.25005  0.25000  0.66370  Biso   1.000  H
  H23      1.0000 0.25005  0.75000  0.33630  Biso   1.000  H
  H24      1.0000 0.74995  0.25000  0.33630  Biso   1.000  H
  C57      1.0000 0.19449  0.18387  0.28928  Biso   1.000  C
  C58      1.0000 0.80551  0.81613  0.28928  Biso   1.000  C
  C59      1.0000 0.80551  0.18387  0.71072  Biso   1.000  C
  C60      1.0000 0.19449  0.81613  0.71072  Biso   1.000  C
  C61      1.0000 0.69450  0.68387  0.28925  Biso   1.000  C
  C62      1.0000 0.30550  0.31613  0.28925  Biso   1.000  C
  C63      1.0000 0.30550  0.68387  0.71075  Biso   1.000  C
  C64      1.0000 0.69450  0.31613  0.71075  Biso   1.000  C
  C65      1.0000 0.80551  0.81613  0.71072  Biso   1.000  C
  C66      1.0000 0.19449  0.18387  0.71072  Biso   1.000  C
  C67      1.0000 0.19449  0.81613  0.28928  Biso   1.000  C
  C68      1.0000 0.80551  0.18387  0.28928  Biso   1.000  C
  C69      1.0000 0.30550  0.31613  0.71075  Biso   1.000  C
  C70      1.0000 0.69450  0.68387  0.71075  Biso   1.000  C
  C71      1.0000 0.69450  0.31613  0.28925  Biso   1.000  C
  C72      1.0000 0.30550  0.68387  0.28925  Biso   1.000  C
  C73      1.0000 0.22484  0.21694  0.18816  Biso   1.000  C
  C74      1.0000 0.77516  0.78306  0.18816  Biso   1.000  C
  C75      1.0000 0.77516  0.21694  0.81184  Biso   1.000  C
  C76      1.0000 0.22484  0.78306  0.81184  Biso   1.000  C
  C77      1.0000 0.72458  0.71700  0.18813  Biso   1.000  C
  C78      1.0000 0.27542  0.28300  0.18813  Biso   1.000  C
  C79      1.0000 0.27542  0.71700  0.81187  Biso   1.000  C
  C80      1.0000 0.72458  0.28300  0.81187  Biso   1.000  C
  C81      1.0000 0.77516  0.78306  0.81184  Biso   1.000  C
  C82      1.0000 0.22484  0.21694  0.81184  Biso   1.000  C
  C83      1.0000 0.22484  0.78306  0.18816  Biso   1.000  C
  C84      1.0000 0.77516  0.21694  0.18816  Biso   1.000  C
  C85      1.0000 0.27542  0.28300  0.81187  Biso   1.000  C
  C86      1.0000 0.72458  0.71700  0.81187  Biso   1.000  C
  C87      1.0000 0.72458  0.28300  0.18813  Biso   1.000  C
  C88      1.0000 0.27542  0.71700  0.18813  Biso   1.000  C
  H25      1.0000 0.20460  0.19189  0.16237  Biso   1.000  H
  H26      1.0000 0.79540  0.80811  0.16237  Biso   1.000  H
  H27      1.0000 0.79540  0.19189  0.83763  Biso   1.000  H
  H28      1.0000 0.20459  0.80811  0.83763  Biso   1.000  H
  H29      1.0000 0.70432  0.69197  0.16229  Biso   1.000  H
  H30      1.0000 0.29568  0.30803  0.16229  Biso   1.000  H
  H31      1.0000 0.29568  0.69197  0.83770  Biso   1.000  H
  H32      1.0000 0.70432  0.30803  0.83771  Biso   1.000  H
  H33      1.0000 0.79540  0.80811  0.83763  Biso   1.000  H
  H34      1.0000 0.20460  0.19189  0.83763  Biso   1.000  H
  H35      1.0000 0.20460  0.80811  0.16237  Biso   1.000  H
  H36      1.0000 0.79540  0.19189  0.16237  Biso   1.000  H
  H37      1.0000 0.29568  0.30803  0.83771  Biso   1.000  H
  H38      1.0000 0.70432  0.69197  0.83771  Biso   1.000  H
  H39      1.0000 0.70432  0.30803  0.16229  Biso   1.000  H
  H40      1.0000 0.29568  0.69197  0.16230  Biso   1.000  H
  C89      1.0000 0.20070  0.14281  0.27202  Biso   1.000  C
  C90      1.0000 0.79930  0.85719  0.27202  Biso   1.000  C
  C91      1.0000 0.79930  0.14281  0.72798  Biso   1.000  C
  C92      1.0000 0.20070  0.85720  0.72798  Biso   1.000  C
  C93      1.0000 0.70080  0.64282  0.27194  Biso   1.000  C
  C94      1.0000 0.29920  0.35718  0.27194  Biso   1.000  C
  C95      1.0000 0.29920  0.64282  0.72806  Biso   1.000  C
  C96      1.0000 0.70080  0.35718  0.72806  Biso   1.000  C
  C97      1.0000 0.79930  0.85719  0.72798  Biso   1.000  C
  C98      1.0000 0.20070  0.14281  0.72798  Biso   1.000  C
  C99      1.0000 0.20070  0.85719  0.27202  Biso   1.000  C
  C100     1.0000 0.79930  0.14281  0.27202  Biso   1.000  C
  C101     1.0000 0.29920  0.35718  0.72806  Biso   1.000  C
  C102     1.0000 0.70080  0.64282  0.72806  Biso   1.000  C
  C103     1.0000 0.70080  0.35718  0.27194  Biso   1.000  C
  C104     1.0000 0.29920  0.64282  0.27194  Biso   1.000  C
  H41      1.0000 0.22897  0.13505  0.23203  Biso   1.000  H
  H42      1.0000 0.77103  0.86495  0.23203  Biso   1.000  H
  H43      1.0000 0.77103  0.13505  0.76797  Biso   1.000  H
  H44      1.0000 0.22897  0.86495  0.76797  Biso   1.000  H
  H45      1.0000 0.72919  0.63506  0.23204  Biso   1.000  H
  H46      1.0000 0.27081  0.36494  0.23204  Biso   1.000  H
  H47      1.0000 0.27081  0.63506  0.76796  Biso   1.000  H
  H48      1.0000 0.72919  0.36494  0.76796  Biso   1.000  H
  H49      1.0000 0.77103  0.86495  0.76797  Biso   1.000  H
  H50      1.0000 0.22897  0.13505  0.76797  Biso   1.000  H
  H51      1.0000 0.22897  0.86495  0.23203  Biso   1.000  H
  H52      1.0000 0.77103  0.13505  0.23203  Biso   1.000  H
  H53      1.0000 0.27081  0.36494  0.76796  Biso   1.000  H
  H54      1.0000 0.72919  0.63506  0.76796  Biso   1.000  H
  H55      1.0000 0.72919  0.36494  0.23204  Biso   1.000  H
  H56      1.0000 0.27081  0.63506  0.23204  Biso   1.000  H
  C105     1.0000 0.22388  0.21703  0.25358  Biso   1.000  C
  C106     1.0000 0.77612  0.78297  0.25359  Biso   1.000  C
  C107     1.0000 0.77612  0.21703  0.74642  Biso   1.000  C
  C108     1.0000 0.22388  0.78297  0.74642  Biso   1.000  C
  C109     1.0000 0.72376  0.71708  0.25356  Biso   1.000  C
  C110     1.0000 0.27624  0.28292  0.25356  Biso   1.000  C
  C111     1.0000 0.27624  0.71708  0.74644  Biso   1.000  C
  C112     1.0000 0.72376  0.28292  0.74644  Biso   1.000  C
  C113     1.0000 0.77612  0.78297  0.74642  Biso   1.000  C
  C114     1.0000 0.22388  0.21703  0.74642  Biso   1.000  C
  C115     1.0000 0.22388  0.78297  0.25359  Biso   1.000  C
  C116     1.0000 0.77612  0.21703  0.25358  Biso   1.000  C
  C117     1.0000 0.27624  0.28292  0.74644  Biso   1.000  C
  C118     1.0000 0.72376  0.71708  0.74644  Biso   1.000  C
  C119     1.0000 0.72376  0.28292  0.25356  Biso   1.000  C
  C120     1.0000 0.27624  0.71708  0.25356  Biso   1.000  C
  C121     1.0000 0.12963  0.16307  0.37556  Biso   1.000  C
  C122     1.0000 0.87037  0.83693  0.37556  Biso   1.000  C
  C123     1.0000 0.87037  0.16307  0.62444  Biso   1.000  C
  C124     1.0000 0.12963  0.83693  0.62444  Biso   1.000  C
  C125     1.0000 0.62965  0.66296  0.37545  Biso   1.000  C
  C126     1.0000 0.37035  0.33704  0.37545  Biso   1.000  C
  C127     1.0000 0.37035  0.66296  0.62455  Biso   1.000  C
  C128     1.0000 0.62964  0.33704  0.62455  Biso   1.000  C
  C129     1.0000 0.87037  0.83693  0.62444  Biso   1.000  C
  C130     1.0000 0.12963  0.16307  0.62444  Biso   1.000  C
  C131     1.0000 0.12963  0.83693  0.37556  Biso   1.000  C
  C132     1.0000 0.87037  0.16307  0.37556  Biso   1.000  C
  C133     1.0000 0.37035  0.33704  0.62455  Biso   1.000  C
  C134     1.0000 0.62965  0.66296  0.62455  Biso   1.000  C
  C135     1.0000 0.62965  0.33704  0.37545  Biso   1.000  C
  C136     1.0000 0.37035  0.66296  0.37545  Biso   1.000  C
  H57      1.0000 0.10102  0.17034  0.41544  Biso   1.000  H
  H58      1.0000 0.89898  0.82967  0.41544  Biso   1.000  H
  H59      1.0000 0.89898  0.17034  0.58456  Biso   1.000  H
  H60      1.0000 0.10102  0.82966  0.58456  Biso   1.000  H
  H61      1.0000 0.60109  0.67010  0.41540  Biso   1.000  H
  H62      1.0000 0.39891  0.32990  0.41540  Biso   1.000  H
  H63      1.0000 0.39891  0.67010  0.58460  Biso   1.000  H
  H64      1.0000 0.60109  0.32990  0.58460  Biso   1.000  H
  H65      1.0000 0.89898  0.82966  0.58456  Biso   1.000  H
  H66      1.0000 0.10102  0.17034  0.58456  Biso   1.000  H
  H67      1.0000 0.10102  0.82967  0.41544  Biso   1.000  H
  H68      1.0000 0.89898  0.17033  0.41544  Biso   1.000  H
  H69      1.0000 0.39891  0.32990  0.58460  Biso   1.000  H
  H70      1.0000 0.60109  0.67010  0.58460  Biso   1.000  H
  H71      1.0000 0.60109  0.32990  0.41540  Biso   1.000  H
  H72      1.0000 0.39891  0.67010  0.41540  Biso   1.000  H
  C137     1.0000 0.15890  0.19344  0.34194  Biso   1.000  C
  C138     1.0000 0.84110  0.80656  0.34194  Biso   1.000  C
  C139     1.0000 0.84110  0.19344  0.65806  Biso   1.000  C
  C140     1.0000 0.15890  0.80656  0.65806  Biso   1.000  C
  C141     1.0000 0.65889  0.69337  0.34193  Biso   1.000  C
  C142     1.0000 0.34111  0.30663  0.34193  Biso   1.000  C
  C143     1.0000 0.34111  0.69337  0.65807  Biso   1.000  C
  C144     1.0000 0.65889  0.30663  0.65807  Biso   1.000  C
  C145     1.0000 0.84110  0.80656  0.65806  Biso   1.000  C
  C146     1.0000 0.15890  0.19344  0.65806  Biso   1.000  C
  C147     1.0000 0.15890  0.80656  0.34194  Biso   1.000  C
  C148     1.0000 0.84110  0.19344  0.34194  Biso   1.000  C
  C149     1.0000 0.34111  0.30663  0.65807  Biso   1.000  C
  C150     1.0000 0.65889  0.69337  0.65807  Biso   1.000  C
  C151     1.0000 0.65889  0.30663  0.34193  Biso   1.000  C
  C152     1.0000 0.34111  0.69337  0.34193  Biso   1.000  C
  H73      1.0000 0.15313  0.22512  0.35520  Biso   1.000  H
  H74      1.0000 0.84687  0.77488  0.35520  Biso   1.000  H
  H75      1.0000 0.84687  0.22512  0.64480  Biso   1.000  H
  H76      1.0000 0.15313  0.77488  0.64480  Biso   1.000  H
  H77      1.0000 0.65313  0.72503  0.35536  Biso   1.000  H
  H78      1.0000 0.34687  0.27497  0.35536  Biso   1.000  H
  H79      1.0000 0.34687  0.72503  0.64464  Biso   1.000  H
  H80      1.0000 0.65313  0.27497  0.64464  Biso   1.000  H
  H81      1.0000 0.84687  0.77488  0.64480  Biso   1.000  H
  H82      1.0000 0.15313  0.22512  0.64480  Biso   1.000  H
  H83      1.0000 0.15313  0.77488  0.35520  Biso   1.000  H
  H84      1.0000 0.84687  0.22512  0.35520  Biso   1.000  H
  H85      1.0000 0.34687  0.27497  0.64464  Biso   1.000  H
  H86      1.0000 0.65313  0.72503  0.64464  Biso   1.000  H
  H87      1.0000 0.65313  0.27497  0.35536  Biso   1.000  H
  H88      1.0000 0.34687  0.72503  0.35536  Biso   1.000  H
  C153     1.0000 0.25015  0.24996  0.15493  Biso   1.000  C
  C154     1.0000 0.74985  0.75004  0.15493  Biso   1.000  C
  C155     1.0000 0.74985  0.24996  0.84507  Biso   1.000  C
  C156     1.0000 0.25015  0.75004  0.84507  Biso   1.000  C
  C157     1.0000 0.74985  0.75004  0.84507  Biso   1.000  C
  C158     1.0000 0.25015  0.24996  0.84507  Biso   1.000  C
  C159     1.0000 0.25015  0.75004  0.15493  Biso   1.000  C
  C160     1.0000 0.74985  0.24996  0.15493  Biso   1.000  C
  C161     1.0000 0.25018  0.24997  0.08891  Biso   1.000  C
  C162     1.0000 0.74982  0.75003  0.08891  Biso   1.000  C
  C163     1.0000 0.74982  0.24997  0.91108  Biso   1.000  C
  C164     1.0000 0.25018  0.75003  0.91110  Biso   1.000  C
  C165     1.0000 0.74982  0.75003  0.91109  Biso   1.000  C
  C166     1.0000 0.25018  0.24997  0.91108  Biso   1.000  C
  C167     1.0000 0.25018  0.75003  0.08892  Biso   1.000  C
  C168     1.0000 0.74982  0.24997  0.08891  Biso   1.000  C
  C169     1.0000 0.25021  0.24997  0.03150  Biso   1.000  C
  C170     1.0000 0.74979  0.75003  0.03151  Biso   1.000  C
  C171     1.0000 0.74979  0.24997  0.96850  Biso   1.000  C
  C172     1.0000 0.25021  0.75003  0.96849  Biso   1.000  C
  C173     1.0000 0.74979  0.75003  0.96849  Biso   1.000  C
  C174     1.0000 0.25021  0.24997  0.96850  Biso   1.000  C
  C175     1.0000 0.25021  0.75003  0.03150  Biso   1.000  C
  C176     1.0000 0.74979  0.24997  0.03150  Biso   1.000  C
