data_image0
_cell_length_a       7.42939
_cell_length_b       23.5107
_cell_length_c       30.7701
_cell_angle_alpha    89.9942
_cell_angle_beta     89.9994
_cell_angle_gamma    90.0007

_symmetry_space_group_name_H-M    "P 1"
_symmetry_int_tables_number       1

loop_
  _symmetry_equiv_pos_as_xyz
  'x, y, z'

loop_
  _atom_site_label
  _atom_site_occupancy
  _atom_site_fract_x
  _atom_site_fract_y
  _atom_site_fract_z
  _atom_site_thermal_displace_type
  _atom_site_B_iso_or_equiv
  _atom_site_type_symbol
  Ag1      1.0000 0.19320  0.23123  0.20919  Biso   1.000  Ag
  Ag2      1.0000 0.30682  0.76791  0.70927  Biso   1.000  Ag
  Ag3      1.0000 0.80797  0.73212  0.29085  Biso   1.000  Ag
  Ag4      1.0000 0.69410  0.26769  0.79078  Biso   1.000  Ag
  Ag5      1.0000 0.69424  0.73240  0.70919  Biso   1.000  Ag
  Ag6      1.0000 0.80845  0.26782  0.20913  Biso   1.000  Ag
  Ag7      1.0000 0.30654  0.23211  0.79072  Biso   1.000  Ag
  Ag8      1.0000 0.19274  0.76864  0.29083  Biso   1.000  Ag
  Ag9      1.0000 0.80730  0.76864  0.79084  Biso   1.000  Ag
  Ag10     1.0000 0.69350  0.23212  0.29072  Biso   1.000  Ag
  Ag11     1.0000 0.19161  0.26782  0.70914  Biso   1.000  Ag
  Ag12     1.0000 0.30571  0.73236  0.20920  Biso   1.000  Ag
  Ag13     1.0000 0.30593  0.26771  0.29078  Biso   1.000  Ag
  Ag14     1.0000 0.19211  0.73212  0.79084  Biso   1.000  Ag
  Ag15     1.0000 0.69318  0.76787  0.20927  Biso   1.000  Ag
  Ag16     1.0000 0.80688  0.23124  0.70919  Biso   1.000  Ag
  Ag17     1.0000 0.54649  0.55593  0.01299  Biso   1.000  Ag
  Ag18     1.0000 0.94973  0.44411  0.51258  Biso   1.000  Ag
  Ag19     1.0000 0.45353  0.05599  0.48704  Biso   1.000  Ag
  Ag20     1.0000 0.04731  0.94409  0.98726  Biso   1.000  Ag
  Ag21     1.0000 0.04736  0.05594  0.51276  Biso   1.000  Ag
  Ag22     1.0000 0.45359  0.94402  0.01296  Biso   1.000  Ag
  Ag23     1.0000 0.94975  0.55594  0.98741  Biso   1.000  Ag
  Ag24     1.0000 0.54648  0.44411  0.48700  Biso   1.000  Ag
  Ag25     1.0000 0.45359  0.44412  0.98699  Biso   1.000  Ag
  Ag26     1.0000 0.05038  0.55594  0.48741  Biso   1.000  Ag
  Ag27     1.0000 0.54641  0.94403  0.51295  Biso   1.000  Ag
  Ag28     1.0000 0.95262  0.05596  0.01276  Biso   1.000  Ag
  Ag29     1.0000 0.95267  0.94408  0.48726  Biso   1.000  Ag
  Ag30     1.0000 0.54646  0.05598  0.98705  Biso   1.000  Ag
  Ag31     1.0000 0.05039  0.44412  0.01258  Biso   1.000  Ag
  Ag32     1.0000 0.45358  0.55593  0.51300  Biso   1.000  Ag
  O1       1.0000 0.35699  0.30340  0.18520  Biso   1.000  O
  O2       1.0000 0.14132  0.69634  0.68520  Biso   1.000  O
  O3       1.0000 0.64750  0.80503  0.31488  Biso   1.000  O
  O4       1.0000 0.85655  0.19525  0.81480  Biso   1.000  O
  O5       1.0000 0.85638  0.80490  0.68510  Biso   1.000  O
  O6       1.0000 0.64775  0.19497  0.18513  Biso   1.000  O
  O7       1.0000 0.14116  0.30368  0.81481  Biso   1.000  O
  O8       1.0000 0.35651  0.69653  0.31481  Biso   1.000  O
  O9       1.0000 0.64360  0.69650  0.81482  Biso   1.000  O
  O10      1.0000 0.85886  0.30369  0.31481  Biso   1.000  O
  O11      1.0000 0.35231  0.19497  0.68513  Biso   1.000  O
  O12      1.0000 0.14362  0.80488  0.18512  Biso   1.000  O
  O13      1.0000 0.14333  0.19530  0.31480  Biso   1.000  O
  O14      1.0000 0.35262  0.80503  0.81486  Biso   1.000  O
  O15      1.0000 0.85874  0.69633  0.18519  Biso   1.000  O
  O16      1.0000 0.64312  0.30341  0.68520  Biso   1.000  O
  O17      1.0000 0.44423  0.33532  0.25205  Biso   1.000  O
  O18      1.0000 0.05435  0.66444  0.75206  Biso   1.000  O
  O19      1.0000 0.55247  0.83463  0.24807  Biso   1.000  O
  O20      1.0000 0.94643  0.16413  0.74795  Biso   1.000  O
  O21      1.0000 0.94709  0.83563  0.75197  Biso   1.000  O
  O22      1.0000 0.55260  0.16534  0.25192  Biso   1.000  O
  O23      1.0000 0.05425  0.33556  0.74795  Biso   1.000  O
  O24      1.0000 0.44407  0.66475  0.24794  Biso   1.000  O
  O25      1.0000 0.55596  0.66477  0.74794  Biso   1.000  O
  O26      1.0000 0.94575  0.33556  0.24795  Biso   1.000  O
  O27      1.0000 0.44743  0.16535  0.75192  Biso   1.000  O
  O28      1.0000 0.05296  0.83563  0.25198  Biso   1.000  O
  O29      1.0000 0.05369  0.16403  0.24796  Biso   1.000  O
  O30      1.0000 0.44743  0.83470  0.74806  Biso   1.000  O
  O31      1.0000 0.94566  0.66443  0.25206  Biso   1.000  O
  O32      1.0000 0.55577  0.33531  0.75205  Biso   1.000  O
  O33      1.0000 0.51272  0.41553  0.05446  Biso   1.000  O
  O34      1.0000 0.99164  0.58343  0.55500  Biso   1.000  O
  O35      1.0000 0.48415  0.91601  0.44571  Biso   1.000  O
  O36      1.0000 0.01633  0.08397  0.94574  Biso   1.000  O
  O37      1.0000 0.01624  0.91604  0.55431  Biso   1.000  O
  O38      1.0000 0.48411  0.08403  0.05427  Biso   1.000  O
  O39      1.0000 0.99164  0.41659  0.94500  Biso   1.000  O
  O40      1.0000 0.51285  0.58455  0.44555  Biso   1.000  O
  O41      1.0000 0.48719  0.58455  0.94554  Biso   1.000  O
  O42      1.0000 0.00845  0.41659  0.44500  Biso   1.000  O
  O43      1.0000 0.51590  0.08403  0.55427  Biso   1.000  O
  O44      1.0000 0.98373  0.91605  0.05430  Biso   1.000  O
  O45      1.0000 0.98366  0.08397  0.44574  Biso   1.000  O
  O46      1.0000 0.51588  0.91601  0.94572  Biso   1.000  O
  O47      1.0000 0.00846  0.58344  0.05500  Biso   1.000  O
  O48      1.0000 0.48730  0.41552  0.55446  Biso   1.000  O
  O49      1.0000 0.66371  0.49893  0.06445  Biso   1.000  O
  O50      1.0000 0.83470  0.50099  0.56431  Biso   1.000  O
  O51      1.0000 0.33585  0.99981  0.43525  Biso   1.000  O
  O52      1.0000 0.16414  0.00005  0.93536  Biso   1.000  O
  O53      1.0000 0.16414  0.99996  0.56464  Biso   1.000  O
  O54      1.0000 0.33586  0.00023  0.06473  Biso   1.000  O
  O55      1.0000 0.83467  0.49903  0.93570  Biso   1.000  O
  O56      1.0000 0.66368  0.50113  0.43554  Biso   1.000  O
  O57      1.0000 0.33636  0.50113  0.93553  Biso   1.000  O
  O58      1.0000 0.16540  0.49903  0.43569  Biso   1.000  O
  O59      1.0000 0.66414  0.00022  0.56473  Biso   1.000  O
  O60      1.0000 0.83583  0.99996  0.06464  Biso   1.000  O
  O61      1.0000 0.83583  0.00005  0.43536  Biso   1.000  O
  O62      1.0000 0.66415  0.99982  0.93525  Biso   1.000  O
  O63      1.0000 0.16536  0.50099  0.06431  Biso   1.000  O
  O64      1.0000 0.33632  0.49892  0.56446  Biso   1.000  O
  N1       1.0000 0.10669  0.18751  0.14234  Biso   1.000  N
  N2       1.0000 0.39238  0.81210  0.64251  Biso   1.000  N
  N3       1.0000 0.89304  0.68774  0.35761  Biso   1.000  N
  N4       1.0000 0.60781  0.31199  0.85759  Biso   1.000  N
  N5       1.0000 0.60801  0.68803  0.64242  Biso   1.000  N
  N6       1.0000 0.89306  0.31230  0.14238  Biso   1.000  N
  N7       1.0000 0.39210  0.18790  0.85749  Biso   1.000  N
  N8       1.0000 0.10662  0.81252  0.35766  Biso   1.000  N
  N9       1.0000 0.89340  0.81254  0.85766  Biso   1.000  N
  N10      1.0000 0.60798  0.18790  0.35748  Biso   1.000  N
  N11      1.0000 0.10691  0.31228  0.64239  Biso   1.000  N
  N12      1.0000 0.39204  0.68803  0.14241  Biso   1.000  N
  N13      1.0000 0.39223  0.31200  0.35759  Biso   1.000  N
  N14      1.0000 0.10694  0.68776  0.85761  Biso   1.000  N
  N15      1.0000 0.60772  0.81210  0.14251  Biso   1.000  N
  N16      1.0000 0.89332  0.18750  0.64234  Biso   1.000  N
  N17      1.0000 0.00884  0.12704  0.06765  Biso   1.000  N
  N18      1.0000 0.48991  0.87271  0.56782  Biso   1.000  N
  N19      1.0000 0.99020  0.62673  0.43216  Biso   1.000  N
  N20      1.0000 0.51064  0.37303  0.93211  Biso   1.000  N
  N21      1.0000 0.51068  0.62701  0.56791  Biso   1.000  N
  N22      1.0000 0.99024  0.37330  0.06783  Biso   1.000  N
  N23      1.0000 0.48984  0.12734  0.93218  Biso   1.000  N
  N24      1.0000 0.00884  0.87298  0.43237  Biso   1.000  N
  N25      1.0000 0.99121  0.87298  0.93237  Biso   1.000  N
  N26      1.0000 0.51020  0.12734  0.43218  Biso   1.000  N
  N27      1.0000 0.00978  0.37329  0.56783  Biso   1.000  N
  N28      1.0000 0.48937  0.62701  0.06790  Biso   1.000  N
  N29      1.0000 0.48941  0.37303  0.43211  Biso   1.000  N
  N30      1.0000 0.00982  0.62674  0.93216  Biso   1.000  N
  N31      1.0000 0.51014  0.87270  0.06783  Biso   1.000  N
  N32      1.0000 0.99120  0.12704  0.56764  Biso   1.000  N
  C1       1.0000 0.98973  0.14404  0.14415  Biso   1.000  C
  C2       1.0000 0.50947  0.85553  0.64431  Biso   1.000  C
  C3       1.0000 0.00973  0.64422  0.35571  Biso   1.000  C
  C4       1.0000 0.49101  0.35549  0.85567  Biso   1.000  C
  C5       1.0000 0.49118  0.64454  0.64434  Biso   1.000  C
  C6       1.0000 0.00975  0.35583  0.14429  Biso   1.000  C
  C7       1.0000 0.50922  0.14448  0.85568  Biso   1.000  C
  C8       1.0000 0.98964  0.85599  0.35586  Biso   1.000  C
  C9       1.0000 0.01039  0.85600  0.85586  Biso   1.000  C
  C10      1.0000 0.49086  0.14448  0.35568  Biso   1.000  C
  C11      1.0000 0.99020  0.35581  0.64429  Biso   1.000  C
  C12      1.0000 0.50887  0.64453  0.14434  Biso   1.000  C
  C13      1.0000 0.50904  0.35550  0.35568  Biso   1.000  C
  C14      1.0000 0.99023  0.64423  0.85571  Biso   1.000  C
  C15      1.0000 0.49062  0.85553  0.14432  Biso   1.000  C
  C16      1.0000 0.01028  0.14403  0.64415  Biso   1.000  C
  H1       1.0000 0.93663  0.13332  0.17602  Biso   1.000  H
  H2       1.0000 0.56287  0.86615  0.67617  Biso   1.000  H
  H3       1.0000 0.06292  0.63370  0.32380  Biso   1.000  H
  H4       1.0000 0.43768  0.36597  0.82377  Biso   1.000  H
  H5       1.0000 0.43789  0.63407  0.67625  Biso   1.000  H
  H6       1.0000 0.06290  0.36635  0.17620  Biso   1.000  H
  H7       1.0000 0.56258  0.13386  0.82382  Biso   1.000  H
  H8       1.0000 0.93646  0.86670  0.32400  Biso   1.000  H
  H9       1.0000 0.06357  0.86671  0.82400  Biso   1.000  H
  H10      1.0000 0.43751  0.13385  0.32381  Biso   1.000  H
  H11      1.0000 0.93702  0.36633  0.67620  Biso   1.000  H
  H12      1.0000 0.56216  0.63406  0.17624  Biso   1.000  H
  H13      1.0000 0.56237  0.36598  0.32378  Biso   1.000  H
  H14      1.0000 0.93703  0.63372  0.82380  Biso   1.000  H
  H15      1.0000 0.43723  0.86614  0.17618  Biso   1.000  H
  H16      1.0000 0.06338  0.13331  0.67602  Biso   1.000  H
  C17      1.0000 0.93987  0.11423  0.10683  Biso   1.000  C
  C18      1.0000 0.55894  0.88547  0.60701  Biso   1.000  C
  C19      1.0000 0.05903  0.61407  0.39293  Biso   1.000  C
  C20      1.0000 0.44176  0.38568  0.89288  Biso   1.000  C
  C21      1.0000 0.44186  0.61436  0.60714  Biso   1.000  C
  C22      1.0000 0.05905  0.38597  0.10706  Biso   1.000  C
  C23      1.0000 0.55878  0.11456  0.89298  Biso   1.000  C
  C24      1.0000 0.93982  0.88580  0.39319  Biso   1.000  C
  C25      1.0000 0.06024  0.88580  0.89319  Biso   1.000  C
  C26      1.0000 0.44129  0.11456  0.39298  Biso   1.000  C
  C27      1.0000 0.94095  0.38595  0.60706  Biso   1.000  C
  C28      1.0000 0.55819  0.61436  0.10713  Biso   1.000  C
  C29      1.0000 0.55829  0.38568  0.39289  Biso   1.000  C
  C30      1.0000 0.94098  0.61409  0.89293  Biso   1.000  C
  C31      1.0000 0.44113  0.88547  0.10701  Biso   1.000  C
  C32      1.0000 0.06018  0.11423  0.60683  Biso   1.000  C
  H17      1.0000 0.84584  0.07878  0.10783  Biso   1.000  H
  H18      1.0000 0.65282  0.92096  0.60803  Biso   1.000  H
  H19      1.0000 0.15280  0.57857  0.39180  Biso   1.000  H
  H20      1.0000 0.34801  0.42120  0.89175  Biso   1.000  H
  H21      1.0000 0.34808  0.57885  0.60827  Biso   1.000  H
  H22      1.0000 0.15282  0.42148  0.10819  Biso   1.000  H
  H23      1.0000 0.65262  0.07906  0.89196  Biso   1.000  H
  H24      1.0000 0.84579  0.92124  0.39220  Biso   1.000  H
  H25      1.0000 0.15427  0.92124  0.89221  Biso   1.000  H
  H26      1.0000 0.34746  0.07906  0.39195  Biso   1.000  H
  H27      1.0000 0.84717  0.42146  0.60819  Biso   1.000  H
  H28      1.0000 0.65196  0.57884  0.10826  Biso   1.000  H
  H29      1.0000 0.65204  0.42120  0.39176  Biso   1.000  H
  H30      1.0000 0.84720  0.57858  0.89181  Biso   1.000  H
  H31      1.0000 0.34727  0.92096  0.10804  Biso   1.000  H
  H32      1.0000 0.15421  0.07879  0.60782  Biso   1.000  H
  C33      1.0000 0.12804  0.17017  0.06608  Biso   1.000  C
  C34      1.0000 0.37081  0.82955  0.56625  Biso   1.000  C
  C35      1.0000 0.87135  0.66995  0.43383  Biso   1.000  C
  C36      1.0000 0.62932  0.32976  0.93381  Biso   1.000  C
  C37      1.0000 0.62938  0.67028  0.56620  Biso   1.000  C
  C38      1.0000 0.87139  0.33008  0.06617  Biso   1.000  C
  C39      1.0000 0.37073  0.17050  0.93376  Biso   1.000  C
  C40      1.0000 0.12804  0.82985  0.43393  Biso   1.000  C
  C41      1.0000 0.87199  0.82986  0.93393  Biso   1.000  C
  C42      1.0000 0.62931  0.17050  0.43375  Biso   1.000  C
  C43      1.0000 0.12862  0.33006  0.56618  Biso   1.000  C
  C44      1.0000 0.37066  0.67028  0.06620  Biso   1.000  C
  C45      1.0000 0.37072  0.32976  0.43381  Biso   1.000  C
  C46      1.0000 0.12868  0.66997  0.93382  Biso   1.000  C
  C47      1.0000 0.62924  0.82954  0.06625  Biso   1.000  C
  C48      1.0000 0.87199  0.17017  0.56607  Biso   1.000  C
  H33      1.0000 0.18690  0.17993  0.03457  Biso   1.000  H
  H34      1.0000 0.31210  0.81974  0.53474  Biso   1.000  H
  H35      1.0000 0.81269  0.67970  0.46535  Biso   1.000  H
  H36      1.0000 0.68764  0.31998  0.96537  Biso   1.000  H
  H37      1.0000 0.68764  0.68007  0.53463  Biso   1.000  H
  H38      1.0000 0.81277  0.32032  0.03464  Biso   1.000  H
  H39      1.0000 0.31211  0.18032  0.96527  Biso   1.000  H
  H40      1.0000 0.18689  0.82007  0.46544  Biso   1.000  H
  H41      1.0000 0.81314  0.82008  0.96544  Biso   1.000  H
  H42      1.0000 0.68792  0.18033  0.46527  Biso   1.000  H
  H43      1.0000 0.18727  0.32031  0.53465  Biso   1.000  H
  H44      1.0000 0.31240  0.68006  0.03463  Biso   1.000  H
  H45      1.0000 0.31239  0.31998  0.46537  Biso   1.000  H
  H46      1.0000 0.18734  0.67971  0.96535  Biso   1.000  H
  H47      1.0000 0.68792  0.81973  0.03474  Biso   1.000  H
  H48      1.0000 0.81313  0.17993  0.53457  Biso   1.000  H
  C49      1.0000 0.17560  0.20064  0.10316  Biso   1.000  C
  C50      1.0000 0.32320  0.79907  0.60334  Biso   1.000  C
  C51      1.0000 0.82390  0.70062  0.39681  Biso   1.000  C
  C52      1.0000 0.67684  0.29910  0.89680  Biso   1.000  C
  C53      1.0000 0.67698  0.70093  0.60320  Biso   1.000  C
  C54      1.0000 0.82393  0.29942  0.10319  Biso   1.000  C
  C55      1.0000 0.32300  0.20094  0.89666  Biso   1.000  C
  C56      1.0000 0.17559  0.79940  0.39683  Biso   1.000  C
  C57      1.0000 0.82443  0.79941  0.89683  Biso   1.000  C
  C58      1.0000 0.67706  0.20094  0.39666  Biso   1.000  C
  C59      1.0000 0.17605  0.29940  0.60319  Biso   1.000  C
  C60      1.0000 0.32307  0.70092  0.10320  Biso   1.000  C
  C61      1.0000 0.32320  0.29910  0.39680  Biso   1.000  C
  C62      1.0000 0.17609  0.70064  0.89681  Biso   1.000  C
  C63      1.0000 0.67688  0.79907  0.10334  Biso   1.000  C
  C64      1.0000 0.82441  0.20062  0.60317  Biso   1.000  C
  H49      1.0000 0.27064  0.23592  0.10201  Biso   1.000  H
  H50      1.0000 0.22785  0.76387  0.60221  Biso   1.000  H
  H51      1.0000 0.72880  0.73589  0.39804  Biso   1.000  H
  H52      1.0000 0.77186  0.26382  0.89806  Biso   1.000  H
  H53      1.0000 0.77201  0.73621  0.60194  Biso   1.000  H
  H54      1.0000 0.72882  0.26415  0.10196  Biso   1.000  H
  H55      1.0000 0.22764  0.23614  0.89780  Biso   1.000  H
  H56      1.0000 0.27066  0.76413  0.39798  Biso   1.000  H
  H57      1.0000 0.72933  0.76414  0.89797  Biso   1.000  H
  H58      1.0000 0.77242  0.23615  0.39779  Biso   1.000  H
  H59      1.0000 0.27115  0.26413  0.60196  Biso   1.000  H
  H60      1.0000 0.22804  0.73620  0.10194  Biso   1.000  H
  H61      1.0000 0.22817  0.26382  0.39806  Biso   1.000  H
  H62      1.0000 0.27118  0.73591  0.89804  Biso   1.000  H
  H63      1.0000 0.77222  0.76387  0.10221  Biso   1.000  H
  H64      1.0000 0.72936  0.23591  0.60201  Biso   1.000  H
  C65      1.0000 0.43877  0.33758  0.21067  Biso   1.000  C
  C66      1.0000 0.05964  0.66214  0.71068  Biso   1.000  C
  C67      1.0000 0.56137  0.83808  0.28938  Biso   1.000  C
  C68      1.0000 0.93994  0.16151  0.78932  Biso   1.000  C
  C69      1.0000 0.94028  0.83848  0.71062  Biso   1.000  C
  C70      1.0000 0.56151  0.16192  0.21061  Biso   1.000  C
  C71      1.0000 0.05952  0.33788  0.78932  Biso   1.000  C
  C72      1.0000 0.43856  0.66244  0.28932  Biso   1.000  C
  C73      1.0000 0.56149  0.66244  0.78932  Biso   1.000  C
  C74      1.0000 0.94050  0.33788  0.28932  Biso   1.000  C
  C75      1.0000 0.43852  0.16192  0.71062  Biso   1.000  C
  C76      1.0000 0.05977  0.83847  0.21063  Biso   1.000  C
  C77      1.0000 0.06016  0.16149  0.28932  Biso   1.000  C
  C78      1.0000 0.43862  0.83812  0.78937  Biso   1.000  C
  C79      1.0000 0.94039  0.66213  0.21068  Biso   1.000  C
  C80      1.0000 0.56127  0.33757  0.71068  Biso   1.000  C
  C81      1.0000 0.53964  0.38572  0.18971  Biso   1.000  C
  C82      1.0000 0.95918  0.61390  0.68975  Biso   1.000  C
  C83      1.0000 0.45986  0.88626  0.31021  Biso   1.000  C
  C84      1.0000 0.04122  0.11344  0.81031  Biso   1.000  C
  C85      1.0000 0.04178  0.88660  0.68973  Biso   1.000  C
  C86      1.0000 0.45994  0.11377  0.18977  Biso   1.000  C
  C87      1.0000 0.95912  0.38613  0.81025  Biso   1.000  C
  C88      1.0000 0.53959  0.61434  0.31027  Biso   1.000  C
  C89      1.0000 0.46043  0.61434  0.81027  Biso   1.000  C
  C90      1.0000 0.04090  0.38614  0.31024  Biso   1.000  C
  C91      1.0000 0.54007  0.11376  0.68978  Biso   1.000  C
  C92      1.0000 0.95834  0.88659  0.18973  Biso   1.000  C
  C93      1.0000 0.95895  0.11344  0.31032  Biso   1.000  C
  C94      1.0000 0.54011  0.88629  0.81021  Biso   1.000  C
  C95      1.0000 0.04085  0.61389  0.18976  Biso   1.000  C
  C96      1.0000 0.46037  0.38571  0.68972  Biso   1.000  C
  C97      1.0000 0.64941  0.42137  0.21496  Biso   1.000  C
  C98      1.0000 0.84935  0.57824  0.71498  Biso   1.000  C
  C99      1.0000 0.35014  0.92196  0.28498  Biso   1.000  C
  C100     1.0000 0.15068  0.07765  0.78510  Biso   1.000  C
  C101     1.0000 0.15138  0.92239  0.71492  Biso   1.000  C
  C102     1.0000 0.35044  0.07802  0.21502  Biso   1.000  C
  C103     1.0000 0.84929  0.42179  0.78502  Biso   1.000  C
  C104     1.0000 0.64935  0.57869  0.28503  Biso   1.000  C
  C105     1.0000 0.35067  0.57870  0.78502  Biso   1.000  C
  C106     1.0000 0.15071  0.42179  0.28501  Biso   1.000  C
  C107     1.0000 0.64963  0.07802  0.71502  Biso   1.000  C
  C108     1.0000 0.84875  0.92239  0.21492  Biso   1.000  C
  C109     1.0000 0.84950  0.07766  0.28510  Biso   1.000  C
  C110     1.0000 0.64993  0.92197  0.78498  Biso   1.000  C
  C111     1.0000 0.15065  0.57823  0.21499  Biso   1.000  C
  C112     1.0000 0.35061  0.42136  0.71496  Biso   1.000  C
  H65      1.0000 0.65659  0.41409  0.24978  Biso   1.000  H
  H66      1.0000 0.84204  0.58553  0.74980  Biso   1.000  H
  H67      1.0000 0.34307  0.91485  0.25014  Biso   1.000  H
  H68      1.0000 0.15701  0.08477  0.75026  Biso   1.000  H
  H69      1.0000 0.15828  0.91536  0.74977  Biso   1.000  H
  H70      1.0000 0.34356  0.08508  0.24987  Biso   1.000  H
  H71      1.0000 0.84196  0.41450  0.75021  Biso   1.000  H
  H72      1.0000 0.65650  0.58597  0.25021  Biso   1.000  H
  H73      1.0000 0.34353  0.58598  0.75020  Biso   1.000  H
  H74      1.0000 0.15803  0.41450  0.25020  Biso   1.000  H
  H75      1.0000 0.65653  0.08509  0.74987  Biso   1.000  H
  H76      1.0000 0.84197  0.91534  0.24977  Biso   1.000  H
  H77      1.0000 0.84323  0.08480  0.25026  Biso   1.000  H
  H78      1.0000 0.65703  0.91485  0.75015  Biso   1.000  H
  H79      1.0000 0.15794  0.58552  0.24980  Biso   1.000  H
  H80      1.0000 0.34343  0.41408  0.74978  Biso   1.000  H
  C113     1.0000 0.74928  0.46441  0.19512  Biso   1.000  C
  C114     1.0000 0.74960  0.53518  0.69514  Biso   1.000  C
  C115     1.0000 0.25001  0.96495  0.30483  Biso   1.000  C
  C116     1.0000 0.25099  0.03471  0.80497  Biso   1.000  C
  C117     1.0000 0.25137  0.96538  0.69501  Biso   1.000  C
  C118     1.0000 0.25031  0.03502  0.19517  Biso   1.000  C
  C119     1.0000 0.74958  0.46485  0.80487  Biso   1.000  C
  C120     1.0000 0.74920  0.53564  0.30487  Biso   1.000  C
  C121     1.0000 0.25083  0.53565  0.80486  Biso   1.000  C
  C122     1.0000 0.25045  0.46485  0.30486  Biso   1.000  C
  C123     1.0000 0.74978  0.03504  0.69517  Biso   1.000  C
  C124     1.0000 0.74871  0.96537  0.19502  Biso   1.000  C
  C125     1.0000 0.74912  0.03473  0.30495  Biso   1.000  C
  C126     1.0000 0.75012  0.96494  0.80484  Biso   1.000  C
  C127     1.0000 0.25042  0.53518  0.19515  Biso   1.000  C
  C128     1.0000 0.25075  0.46441  0.69513  Biso   1.000  C
  H81      1.0000 0.83862  0.49129  0.21418  Biso   1.000  H
  H82      1.0000 0.66019  0.50831  0.71419  Biso   1.000  H
  H83      1.0000 0.16061  0.99183  0.28578  Biso   1.000  H
  H84      1.0000 0.33993  0.00770  0.78588  Biso   1.000  H
  H85      1.0000 0.34011  0.99251  0.71403  Biso   1.000  H
  H86      1.0000 0.16101  0.00812  0.21423  Biso   1.000  H
  H87      1.0000 0.66018  0.49172  0.78581  Biso   1.000  H
  H88      1.0000 0.83850  0.50877  0.28580  Biso   1.000  H
  H89      1.0000 0.16154  0.50877  0.78580  Biso   1.000  H
  H90      1.0000 0.33984  0.49172  0.28580  Biso   1.000  H
  H91      1.0000 0.83911  0.00815  0.71422  Biso   1.000  H
  H92      1.0000 0.65996  0.99249  0.21405  Biso   1.000  H
  H93      1.0000 0.66017  0.00774  0.28586  Biso   1.000  H
  H94      1.0000 0.83959  0.99180  0.78579  Biso   1.000  H
  H95      1.0000 0.33982  0.50832  0.21420  Biso   1.000  H
  H96      1.0000 0.16143  0.49128  0.71419  Biso   1.000  H
  C129     1.0000 0.73581  0.47319  0.15042  Biso   1.000  C
  C130     1.0000 0.76330  0.52640  0.65044  Biso   1.000  C
  C131     1.0000 0.26315  0.97368  0.34953  Biso   1.000  C
  C132     1.0000 0.23836  0.02624  0.84971  Biso   1.000  C
  C133     1.0000 0.23853  0.97386  0.65027  Biso   1.000  C
  C134     1.0000 0.26331  0.02633  0.15047  Biso   1.000  C
  C135     1.0000 0.76327  0.47362  0.84956  Biso   1.000  C
  C136     1.0000 0.73571  0.52687  0.34957  Biso   1.000  C
  C137     1.0000 0.26433  0.52687  0.84956  Biso   1.000  C
  C138     1.0000 0.23679  0.47362  0.34955  Biso   1.000  C
  C139     1.0000 0.73676  0.02634  0.65047  Biso   1.000  C
  C140     1.0000 0.76150  0.97385  0.15028  Biso   1.000  C
  C141     1.0000 0.76170  0.02625  0.34969  Biso   1.000  C
  C142     1.0000 0.73694  0.97367  0.84954  Biso   1.000  C
  C143     1.0000 0.23676  0.52640  0.15045  Biso   1.000  C
  C144     1.0000 0.26424  0.47319  0.65043  Biso   1.000  C
  H97      1.0000 0.81309  0.50664  0.13481  Biso   1.000  H
  H98      1.0000 0.68587  0.49304  0.63479  Biso   1.000  H
  H99      1.0000 0.18572  0.00709  0.36514  Biso   1.000  H
  H100     1.0000 0.31612  0.99293  0.86537  Biso   1.000  H
  H101     1.0000 0.31595  0.00722  0.63459  Biso   1.000  H
  H102     1.0000 0.18587  0.99292  0.13485  Biso   1.000  H
  H103     1.0000 0.68585  0.50699  0.86522  Biso   1.000  H
  H104     1.0000 0.81297  0.49341  0.36517  Biso   1.000  H
  H105     1.0000 0.18708  0.49341  0.86516  Biso   1.000  H
  H106     1.0000 0.31424  0.50699  0.36520  Biso   1.000  H
  H107     1.0000 0.81419  0.99293  0.63485  Biso   1.000  H
  H108     1.0000 0.68401  0.00720  0.13460  Biso   1.000  H
  H109     1.0000 0.68390  0.99295  0.36534  Biso   1.000  H
  H110     1.0000 0.81438  0.00709  0.86515  Biso   1.000  H
  H111     1.0000 0.31422  0.49304  0.13480  Biso   1.000  H
  H112     1.0000 0.18697  0.50664  0.63482  Biso   1.000  H
  C145     1.0000 0.62340  0.43870  0.12490  Biso   1.000  C
  C146     1.0000 0.87627  0.56077  0.62498  Biso   1.000  C
  C147     1.0000 0.37562  0.93921  0.37505  Biso   1.000  C
  C148     1.0000 0.12578  0.06074  0.87519  Biso   1.000  C
  C149     1.0000 0.12611  0.93930  0.62482  Biso   1.000  C
  C150     1.0000 0.37566  0.06083  0.12494  Biso   1.000  C
  C151     1.0000 0.87624  0.43925  0.87502  Biso   1.000  C
  C152     1.0000 0.62335  0.56137  0.37509  Biso   1.000  C
  C153     1.0000 0.37667  0.56138  0.87509  Biso   1.000  C
  C154     1.0000 0.12383  0.43925  0.37502  Biso   1.000  C
  C155     1.0000 0.62437  0.06083  0.62494  Biso   1.000  C
  C156     1.0000 0.87396  0.93930  0.12482  Biso   1.000  C
  C157     1.0000 0.87428  0.06074  0.37518  Biso   1.000  C
  C158     1.0000 0.62444  0.93921  0.87506  Biso   1.000  C
  C159     1.0000 0.12379  0.56077  0.12499  Biso   1.000  C
  C160     1.0000 0.37662  0.43869  0.62490  Biso   1.000  C
  C161     1.0000 0.52824  0.39442  0.14475  Biso   1.000  C
  C162     1.0000 0.97132  0.60506  0.64483  Biso   1.000  C
  C163     1.0000 0.47109  0.89499  0.35519  Biso   1.000  C
  C164     1.0000 0.03000  0.10486  0.85529  Biso   1.000  C
  C165     1.0000 0.03055  0.89517  0.64475  Biso   1.000  C
  C166     1.0000 0.47107  0.10506  0.14479  Biso   1.000  C
  C167     1.0000 0.97127  0.39496  0.85517  Biso   1.000  C
  C168     1.0000 0.52821  0.60565  0.35524  Biso   1.000  C
  C169     1.0000 0.47180  0.60567  0.85523  Biso   1.000  C
  C170     1.0000 0.02878  0.39497  0.35517  Biso   1.000  C
  C171     1.0000 0.52893  0.10505  0.64479  Biso   1.000  C
  C172     1.0000 0.96955  0.89518  0.14474  Biso   1.000  C
  C173     1.0000 0.97013  0.10485  0.35530  Biso   1.000  C
  C174     1.0000 0.52890  0.89501  0.85520  Biso   1.000  C
  C175     1.0000 0.02873  0.60506  0.14483  Biso   1.000  C
  C176     1.0000 0.47176  0.39440  0.64476  Biso   1.000  C
  H113     1.0000 0.44386  0.36672  0.12523  Biso   1.000  H
  H114     1.0000 0.05587  0.63267  0.62527  Biso   1.000  H
  H115     1.0000 0.55552  0.86731  0.37472  Biso   1.000  H
  H116     1.0000 0.94556  0.13251  0.87485  Biso   1.000  H
  H117     1.0000 0.94620  0.86745  0.62524  Biso   1.000  H
  H118     1.0000 0.55539  0.13277  0.12526  Biso   1.000  H
  H119     1.0000 0.05582  0.36735  0.87473  Biso   1.000  H
  H120     1.0000 0.44385  0.63335  0.37477  Biso   1.000  H
  H121     1.0000 0.55615  0.63337  0.87476  Biso   1.000  H
  H122     1.0000 0.94424  0.36735  0.37473  Biso   1.000  H
  H123     1.0000 0.44458  0.13276  0.62526  Biso   1.000  H
  H124     1.0000 0.05394  0.86748  0.12522  Biso   1.000  H
  H125     1.0000 0.05457  0.13249  0.37487  Biso   1.000  H
  H126     1.0000 0.44443  0.86733  0.87472  Biso   1.000  H
  H127     1.0000 0.94418  0.63266  0.12527  Biso   1.000  H
  H128     1.0000 0.55613  0.36671  0.62523  Biso   1.000  H
  C177     1.0000 0.59857  0.45169  0.07742  Biso   1.000  C
  C178     1.0000 0.90229  0.54773  0.57758  Biso   1.000  C
  C179     1.0000 0.39982  0.95230  0.42253  Biso   1.000  C
  C180     1.0000 0.10069  0.04765  0.92262  Biso   1.000  C
  C181     1.0000 0.10073  0.95236  0.57739  Biso   1.000  C
  C182     1.0000 0.39981  0.04774  0.07746  Biso   1.000  C
  C183     1.0000 0.90226  0.45229  0.92242  Biso   1.000  C
  C184     1.0000 0.59858  0.54837  0.42257  Biso   1.000  C
  C185     1.0000 0.40145  0.54838  0.92256  Biso   1.000  C
  C186     1.0000 0.09782  0.45229  0.42242  Biso   1.000  C
  C187     1.0000 0.60020  0.04774  0.57746  Biso   1.000  C
  C188     1.0000 0.89927  0.95237  0.07740  Biso   1.000  C
  C189     1.0000 0.89931  0.04764  0.42262  Biso   1.000  C
  C190     1.0000 0.60021  0.95230  0.92253  Biso   1.000  C
  C191     1.0000 0.09780  0.54773  0.07759  Biso   1.000  C
  C192     1.0000 0.40146  0.45169  0.57743  Biso   1.000  C
