data_image0
_cell_length_a       7.98918
_cell_length_b       15.1155
_cell_length_c       20.4174
_cell_angle_alpha    90.001
_cell_angle_beta     102.642
_cell_angle_gamma    89.9951

_symmetry_space_group_name_H-M    "P 1"
_symmetry_int_tables_number       1

loop_
  _symmetry_equiv_pos_as_xyz
  'x, y, z'

loop_
  _atom_site_label
  _atom_site_occupancy
  _atom_site_fract_x
  _atom_site_fract_y
  _atom_site_fract_z
  _atom_site_thermal_displace_type
  _atom_site_B_iso_or_equiv
  _atom_site_type_symbol
  Zn1      1.0000 0.11939  0.34841  0.25782  Biso   1.000  Zn
  Zn2      1.0000 0.37705  0.84847  0.24224  Biso   1.000  Zn
  Zn3      1.0000 0.87377  0.65149  0.74202  Biso   1.000  Zn
  Zn4      1.0000 0.62249  0.15144  0.75797  Biso   1.000  Zn
  C1       1.0000 0.23837  0.30408  0.40937  Biso   1.000  C
  C2       1.0000 0.25830  0.80440  0.09067  Biso   1.000  C
  C3       1.0000 0.75748  0.69577  0.59048  Biso   1.000  C
  C4       1.0000 0.73913  0.19589  0.90953  Biso   1.000  C
  H1       1.0000 0.14073  0.34763  0.42044  Biso   1.000  H
  H2       1.0000 0.35566  0.84817  0.07964  Biso   1.000  H
  H3       1.0000 0.85483  0.65183  0.57965  Biso   1.000  H
  H4       1.0000 0.64171  0.15209  0.92047  Biso   1.000  H
  C5       1.0000 0.36279  0.25624  0.45184  Biso   1.000  C
  C6       1.0000 0.13430  0.75636  0.04818  Biso   1.000  C
  C7       1.0000 0.63448  0.74417  0.54779  Biso   1.000  C
  C8       1.0000 0.86236  0.24430  0.95210  Biso   1.000  C
  H5       1.0000 0.39180  0.24759  0.50572  Biso   1.000  H
  H6       1.0000 0.10537  0.74777  0.99429  Biso   1.000  H
  H7       1.0000 0.60648  0.75290  0.49392  Biso   1.000  H
  H8       1.0000 0.89039  0.25327  0.00594  Biso   1.000  H
  C9       1.0000 0.39228  0.23920  0.34688  Biso   1.000  C
  C10      1.0000 0.10482  0.73906  0.15310  Biso   1.000  C
  C11      1.0000 0.60322  0.76136  0.65251  Biso   1.000  C
  C12      1.0000 0.89347  0.26102  0.84733  Biso   1.000  C
  H9       1.0000 0.43837  0.21768  0.30327  Biso   1.000  H
  H10      1.0000 0.05878  0.71740  0.19669  Biso   1.000  H
  H11      1.0000 0.55658  0.78309  0.69594  Biso   1.000  H
  H12      1.0000 0.94004  0.28255  0.80383  Biso   1.000  H
  C13      1.0000 0.60470  0.15533  0.43384  Biso   1.000  C
  C14      1.0000 0.89313  0.65491  0.06603  Biso   1.000  C
  C15      1.0000 0.39339  0.84602  0.56511  Biso   1.000  C
  C16      1.0000 0.10383  0.34571  0.93442  Biso   1.000  C
  H13      1.0000 0.65001  0.13724  0.38874  Biso   1.000  H
  H14      1.0000 0.84787  0.63656  0.11109  Biso   1.000  H
  H15      1.0000 0.34755  0.86453  0.61000  Biso   1.000  H
  H16      1.0000 0.14913  0.36406  0.88938  Biso   1.000  H
  H17      1.0000 0.70834  0.19132  0.46742  Biso   1.000  H
  H18      1.0000 0.78923  0.69080  0.03250  Biso   1.000  H
  H19      1.0000 0.28958  0.81030  0.53139  Biso   1.000  H
  H20      1.0000 0.20781  0.30994  0.96801  Biso   1.000  H
  C17      1.0000 0.55310  0.07456  0.46803  Biso   1.000  C
  C18      1.0000 0.94514  0.57431  0.03174  Biso   1.000  C
  C19      1.0000 0.44636  0.92648  0.53095  Biso   1.000  C
  C20      1.0000 0.05150  0.42627  0.96864  Biso   1.000  C
  C21      1.0000 0.47272  0.00354  0.42974  Biso   1.000  C
  C22      1.0000 0.02583  0.50330  0.06996  Biso   1.000  C
  C23      1.0000 0.52701  0.99743  0.56925  Biso   1.000  C
  C24      1.0000 0.97071  0.49726  0.93042  Biso   1.000  C
  H21      1.0000 0.45105  0.00572  0.37530  Biso   1.000  H
  H22      1.0000 0.04779  0.50545  0.12441  Biso   1.000  H
  H23      1.0000 0.54859  0.99527  0.62370  Biso   1.000  H
  H24      1.0000 0.94878  0.49512  0.87597  Biso   1.000  H
  C25      1.0000 0.58006  0.07110  0.53809  Biso   1.000  C
  C26      1.0000 0.91786  0.57092  0.96167  Biso   1.000  C
  C27      1.0000 0.41967  0.92987  0.46090  Biso   1.000  C
  C28      1.0000 0.07870  0.42965  0.03871  Biso   1.000  C
  H25      1.0000 0.64173  0.12610  0.56854  Biso   1.000  H
  H26      1.0000 0.85601  0.62591  0.93127  Biso   1.000  H
  H27      1.0000 0.35795  0.87489  0.43045  Biso   1.000  H
  H28      1.0000 0.14061  0.37466  0.06909  Biso   1.000  H
  C29      1.0000 0.26545  0.53152  0.23482  Biso   1.000  C
  C30      1.0000 0.23122  0.03167  0.26536  Biso   1.000  C
  C31      1.0000 0.72951  0.46831  0.76580  Biso   1.000  C
  C32      1.0000 0.76643  0.96816  0.73423  Biso   1.000  C
  H29      1.0000 0.17620  0.56205  0.26099  Biso   1.000  H
  H30      1.0000 0.32028  0.06225  0.23913  Biso   1.000  H
  H31      1.0000 0.81897  0.43771  0.73976  Biso   1.000  H
  H32      1.0000 0.67671  0.93762  0.76017  Biso   1.000  H
  C33      1.0000 0.38921  0.56939  0.20655  Biso   1.000  C
  C34      1.0000 0.10773  0.06948  0.29381  Biso   1.000  C
  C35      1.0000 0.60630  0.43050  0.79440  Biso   1.000  C
  C36      1.0000 0.88994  0.93027  0.70583  Biso   1.000  C
  H33      1.0000 0.42858  0.63748  0.20366  Biso   1.000  H
  H34      1.0000 0.06844  0.13758  0.29684  Biso   1.000  H
  H35      1.0000 0.56764  0.36235  0.79773  Biso   1.000  H
  H36      1.0000 0.92869  0.86213  0.70261  Biso   1.000  H
  C37      1.0000 0.39515  0.42351  0.19421  Biso   1.000  C
  C38      1.0000 0.10189  0.92359  0.30604  Biso   1.000  C
  C39      1.0000 0.59926  0.57647  0.80600  Biso   1.000  C
  C40      1.0000 0.89722  0.07624  0.69419  Biso   1.000  C
  H37      1.0000 0.43290  0.35774  0.18178  Biso   1.000  H
  H38      1.0000 0.06423  0.85780  0.31844  Biso   1.000  H
  H39      1.0000 0.56113  0.64229  0.81814  Biso   1.000  H
  H40      1.0000 0.93553  0.14203  0.68207  Biso   1.000  H
  C41      1.0000 0.61197  0.50738  0.14643  Biso   1.000  C
  C42      1.0000 0.88540  0.00734  0.35407  Biso   1.000  C
  C43      1.0000 0.38351  0.49284  0.85441  Biso   1.000  C
  C44      1.0000 0.11335  0.99230  0.64608  Biso   1.000  C
  H41      1.0000 0.67572  0.57044  0.16276  Biso   1.000  H
  H42      1.0000 0.82166  0.07044  0.33787  Biso   1.000  H
  H43      1.0000 0.31944  0.42983  0.83819  Biso   1.000  H
  H44      1.0000 0.17693  0.92918  0.66236  Biso   1.000  H
  H45      1.0000 0.70386  0.45446  0.16567  Biso   1.000  H
  H46      1.0000 0.79342  0.95448  0.33478  Biso   1.000  H
  H47      1.0000 0.29171  0.54581  0.83518  Biso   1.000  H
  H48      1.0000 0.20536  0.04514  0.66538  Biso   1.000  H
  C45      1.0000 0.55252  0.50383  0.07085  Biso   1.000  C
  C46      1.0000 0.94501  0.00356  0.42964  Biso   1.000  C
  C47      1.0000 0.44337  0.49653  0.92998  Biso   1.000  C
  C48      1.0000 0.05390  0.99601  0.57051  Biso   1.000  C
  C49      1.0000 0.60202  0.43347  0.03462  Biso   1.000  C
  C50      1.0000 0.89550  0.93312  0.46577  Biso   1.000  C
  C51      1.0000 0.39401  0.56693  0.96620  Biso   1.000  C
  C52      1.0000 0.10348  0.06644  0.53438  Biso   1.000  C
  H49      1.0000 0.68417  0.38153  0.06124  Biso   1.000  H
  H50      1.0000 0.81336  0.88124  0.43907  Biso   1.000  H
  H51      1.0000 0.31189  0.61887  0.93958  Biso   1.000  H
  H52      1.0000 0.18563  0.11832  0.56107  Biso   1.000  H
  C53      1.0000 0.44792  0.57052  0.03599  Biso   1.000  C
  C54      1.0000 0.04969  0.07016  0.46458  Biso   1.000  C
  C55      1.0000 0.54811  0.42988  0.96483  Biso   1.000  C
  C56      1.0000 0.94926  0.92940  0.53556  Biso   1.000  C
  H53      1.0000 0.40651  0.62545  0.06317  Biso   1.000  H
  H54      1.0000 0.09122  0.12511  0.43747  Biso   1.000  H
  H55      1.0000 0.58958  0.37499  0.93764  Biso   1.000  H
  H56      1.0000 0.90776  0.87443  0.56267  Biso   1.000  H
  C57      1.0000 0.91094  0.44932  0.31448  Biso   1.000  C
  C58      1.0000 0.58644  0.94921  0.18575  Biso   1.000  C
  C59      1.0000 0.08389  0.55069  0.68557  Biso   1.000  C
  C60      1.0000 0.41249  0.05076  0.81452  Biso   1.000  C
  C61      1.0000 0.74796  0.48588  0.33120  Biso   1.000  C
  C62      1.0000 0.74997  0.98532  0.16920  Biso   1.000  C
  C63      1.0000 0.24809  0.51508  0.66926  Biso   1.000  C
  C64      1.0000 0.24848  0.01505  0.83092  Biso   1.000  C
  H57      1.0000 0.64068  0.44162  0.31035  Biso   1.000  H
  H58      1.0000 0.85675  0.94072  0.19003  Biso   1.000  H
  H59      1.0000 0.35416  0.56002  0.69020  Biso   1.000  H
  H60      1.0000 0.14212  0.05986  0.81006  Biso   1.000  H
  H61      1.0000 0.72076  0.54936  0.30440  Biso   1.000  H
  H62      1.0000 0.77771  0.04868  0.19614  Biso   1.000  H
  H63      1.0000 0.27641  0.45185  0.69632  Biso   1.000  H
  H64      1.0000 0.22041  0.95183  0.80383  Biso   1.000  H
  C65      1.0000 0.75984  0.50110  0.40623  Biso   1.000  C
  C66      1.0000 0.73846  0.00075  0.09422  Biso   1.000  C
  C67      1.0000 0.23793  0.49959  0.59436  Biso   1.000  C
  C68      1.0000 0.25909  0.99945  0.90583  Biso   1.000  C
  H65      1.0000 0.86367  0.54812  0.42567  Biso   1.000  H
  H66      1.0000 0.63501  0.04800  0.07483  Biso   1.000  H
  H67      1.0000 0.13489  0.45221  0.57474  Biso   1.000  H
  H68      1.0000 0.36233  0.95212  0.92533  Biso   1.000  H
  H69      1.0000 0.64016  0.53296  0.41183  Biso   1.000  H
  H70      1.0000 0.85845  0.03238  0.08876  Biso   1.000  H
  H71      1.0000 0.35838  0.46804  0.58930  Biso   1.000  H
  H72      1.0000 0.13884  0.96781  0.91100  Biso   1.000  H
  C69      1.0000 0.78602  0.41618  0.44882  Biso   1.000  C
  C70      1.0000 0.71176  0.91601  0.05143  Biso   1.000  C
  C71      1.0000 0.21172  0.58424  0.55147  Biso   1.000  C
  C72      1.0000 0.28540  0.08409  0.94876  Biso   1.000  C
  H73      1.0000 0.92323  0.39926  0.46233  Biso   1.000  H
  H74      1.0000 0.57452  0.89919  0.03804  Biso   1.000  H
  H75      1.0000 0.07454  0.60123  0.53795  Biso   1.000  H
  H76      1.0000 0.42264  0.10091  0.96237  Biso   1.000  H
  H77      1.0000 0.72202  0.36038  0.41877  Biso   1.000  H
  H78      1.0000 0.77581  0.86006  0.08129  Biso   1.000  H
  H79      1.0000 0.27593  0.64019  0.58127  Biso   1.000  H
  H80      1.0000 0.22155  0.14009  0.91891  Biso   1.000  H
  C73      1.0000 0.71404  0.42588  0.51214  Biso   1.000  C
  C74      1.0000 0.78318  0.92585  0.98799  Biso   1.000  C
  C75      1.0000 0.28349  0.57400  0.48812  Biso   1.000  C
  C76      1.0000 0.21324  0.07404  0.01203  Biso   1.000  C
  H81      1.0000 0.76148  0.48726  0.53873  Biso   1.000  H
  H82      1.0000 0.73560  0.98727  0.96148  Biso   1.000  H
  H83      1.0000 0.23532  0.51268  0.46161  Biso   1.000  H
  H84      1.0000 0.26108  0.01270  0.03861  Biso   1.000  H
  H85      1.0000 0.57394  0.43317  0.49638  Biso   1.000  H
  H86      1.0000 0.92331  0.93312  0.00357  Biso   1.000  H
  H87      1.0000 0.42348  0.56625  0.50388  Biso   1.000  H
  H88      1.0000 0.07323  0.06644  0.99617  Biso   1.000  H
  C77      1.0000 0.75686  0.34937  0.56219  Biso   1.000  C
  C78      1.0000 0.73998  0.84938  0.93793  Biso   1.000  C
  C79      1.0000 0.24160  0.65052  0.43804  Biso   1.000  C
  C80      1.0000 0.25511  0.15061  0.06209  Biso   1.000  C
  H89      1.0000 0.89154  0.35306  0.58931  Biso   1.000  H
  H90      1.0000 0.60520  0.85312  0.91093  Biso   1.000  H
  H91      1.0000 0.10711  0.64696  0.41069  Biso   1.000  H
  H92      1.0000 0.38955  0.14705  0.08949  Biso   1.000  H
  H93      1.0000 0.74185  0.28555  0.53560  Biso   1.000  H
  H94      1.0000 0.75509  0.78555  0.96452  Biso   1.000  H
  H95      1.0000 0.25642  0.71432  0.46466  Biso   1.000  H
  H96      1.0000 0.24033  0.21439  0.03543  Biso   1.000  H
  C81      1.0000 0.64193  0.35118  0.61321  Biso   1.000  C
  C82      1.0000 0.85451  0.85123  0.88676  Biso   1.000  C
  C83      1.0000 0.35725  0.64878  0.38727  Biso   1.000  C
  C84      1.0000 0.13922  0.14891  0.11278  Biso   1.000  C
  H97      1.0000 0.65322  0.41707  0.63683  Biso   1.000  H
  H98      1.0000 0.84281  0.91710  0.86309  Biso   1.000  H
  H99      1.0000 0.34652  0.58291  0.36362  Biso   1.000  H
  H100     1.0000 0.14992  0.08304  0.13644  Biso   1.000  H
  H101     1.0000 0.50640  0.34275  0.58855  Biso   1.000  H
  H102     1.0000 0.99015  0.84290  0.91132  Biso   1.000  H
  H103     1.0000 0.49260  0.65735  0.41212  Biso   1.000  H
  H104     1.0000 0.00392  0.15745  0.08784  Biso   1.000  H
  C85      1.0000 0.68965  0.28377  0.66938  Biso   1.000  C
  C86      1.0000 0.80660  0.78376  0.83066  Biso   1.000  C
  C87      1.0000 0.30972  0.71619  0.33107  Biso   1.000  C
  C88      1.0000 0.18655  0.21630  0.16899  Biso   1.000  C
  O1       1.0000 0.88937  0.39299  0.26451  Biso   1.000  O
  O2       1.0000 0.60716  0.89302  0.23580  Biso   1.000  O
  O3       1.0000 0.10377  0.60682  0.73563  Biso   1.000  O
  O4       1.0000 0.39244  0.10682  0.76441  Biso   1.000  O
  O5       1.0000 0.05536  0.47321  0.34677  Biso   1.000  O
  O6       1.0000 0.44242  0.97332  0.15324  Biso   1.000  O
  O7       1.0000 0.94028  0.52623  0.65290  Biso   1.000  O
  O8       1.0000 0.55618  0.02636  0.84715  Biso   1.000  O
  O9       1.0000 0.56216  0.23995  0.68384  Biso   1.000  O
  O10      1.0000 0.93403  0.73998  0.81612  Biso   1.000  O
  O11      1.0000 0.43726  0.75972  0.31636  Biso   1.000  O
  O12      1.0000 0.05895  0.25981  0.18366  Biso   1.000  O
  O13      1.0000 0.84405  0.27433  0.69896  Biso   1.000  O
  O14      1.0000 0.65211  0.77426  0.80122  Biso   1.000  O
  O15      1.0000 0.15523  0.72584  0.30173  Biso   1.000  O
  O16      1.0000 0.34100  0.22592  0.19839  Biso   1.000  O
  N1       1.0000 0.25753  0.29256  0.34403  Biso   1.000  N
  N2       1.0000 0.23915  0.79272  0.15599  Biso   1.000  N
  N3       1.0000 0.73721  0.70738  0.65566  Biso   1.000  N
  N4       1.0000 0.75930  0.20722  0.84431  Biso   1.000  N
  N5       1.0000 0.45949  0.21590  0.41148  Biso   1.000  N
  N6       1.0000 0.03789  0.71572  0.08849  Biso   1.000  N
  N7       1.0000 0.53757  0.78496  0.58785  Biso   1.000  N
  N8       1.0000 0.95932  0.28479  0.91192  Biso   1.000  N
  N9       1.0000 0.27045  0.44067  0.22670  Biso   1.000  N
  N10      1.0000 0.22629  0.94081  0.27342  Biso   1.000  N
  N11      1.0000 0.72377  0.55920  0.77344  Biso   1.000  N
  N12      1.0000 0.77234  0.05904  0.72657  Biso   1.000  N
  N13      1.0000 0.46973  0.50026  0.18116  Biso   1.000  N
  N14      1.0000 0.02746  0.00030  0.31925  Biso   1.000  N
  N15      1.0000 0.52544  0.49974  0.81952  Biso   1.000  N
  N16      1.0000 0.97113  0.99945  0.68080  Biso   1.000  N
