data_image0
_cell_length_a       6.74663
_cell_length_b       10.5798
_cell_length_c       13.9931
_cell_angle_alpha    89.9641
_cell_angle_beta     98.7764
_cell_angle_gamma    90.0277

_symmetry_space_group_name_H-M    "P 1"
_symmetry_int_tables_number       1

loop_
  _symmetry_equiv_pos_as_xyz
  'x, y, z'

loop_
  _atom_site_label
  _atom_site_occupancy
  _atom_site_fract_x
  _atom_site_fract_y
  _atom_site_fract_z
  _atom_site_thermal_displace_type
  _atom_site_B_iso_or_equiv
  _atom_site_type_symbol
  Ga1      1.0000 0.50037  0.99483  0.50323  Biso   1.000  Ga
  Ga2      1.0000 0.00028  0.00106  0.50284  Biso   1.000  Ga
  Ga3      1.0000 0.00017  0.49466  0.00307  Biso   1.000  Ga
  Ga4      1.0000 0.49974  0.50069  0.00215  Biso   1.000  Ga
  O1       1.0000 0.56968  0.13901  0.41283  Biso   1.000  O
  O2       1.0000 0.92279  0.14099  0.58795  Biso   1.000  O
  O3       1.0000 0.06905  0.63966  0.91315  Biso   1.000  O
  O4       1.0000 0.42269  0.63968  0.08857  Biso   1.000  O
  O5       1.0000 0.42197  0.85612  0.58888  Biso   1.000  O
  O6       1.0000 0.07019  0.85749  0.41264  Biso   1.000  O
  O7       1.0000 0.92207  0.35498  0.08801  Biso   1.000  O
  O8       1.0000 0.56868  0.35835  0.91128  Biso   1.000  O
  H1       1.0000 0.24086  0.15016  0.44721  Biso   1.000  H
  H2       1.0000 0.74136  0.64962  0.94720  Biso   1.000  H
  H3       1.0000 0.73944  0.84670  0.44660  Biso   1.000  H
  H4       1.0000 0.23800  0.34779  0.94442  Biso   1.000  H
  O9       1.0000 0.88918  0.10272  0.38293  Biso   1.000  O
  O10      1.0000 0.61428  0.08747  0.62395  Biso   1.000  O
  O11      1.0000 0.38864  0.60363  0.88316  Biso   1.000  O
  O12      1.0000 0.11405  0.58625  0.12438  Biso   1.000  O
  O13      1.0000 0.11348  0.91015  0.62448  Biso   1.000  O
  O14      1.0000 0.38993  0.89377  0.38297  Biso   1.000  O
  O15      1.0000 0.61173  0.40689  0.12239  Biso   1.000  O
  O16      1.0000 0.88867  0.39506  0.88209  Biso   1.000  O
  O17      1.0000 0.25186  0.08898  0.49984  Biso   1.000  O
  O18      1.0000 0.75155  0.58859  0.99995  Biso   1.000  O
  O19      1.0000 0.75161  0.90690  0.49981  Biso   1.000  O
  O20      1.0000 0.25062  0.40683  0.99841  Biso   1.000  O
  C1       1.0000 0.71482  0.15270  0.36462  Biso   1.000  C
  C2       1.0000 0.78099  0.14672  0.63875  Biso   1.000  C
  C3       1.0000 0.21448  0.65395  0.86522  Biso   1.000  C
  C4       1.0000 0.28089  0.64538  0.13940  Biso   1.000  C
  C5       1.0000 0.28033  0.85127  0.63992  Biso   1.000  C
  C6       1.0000 0.21586  0.84339  0.36475  Biso   1.000  C
  C7       1.0000 0.77951  0.34906  0.13841  Biso   1.000  C
  C8       1.0000 0.71452  0.34485  0.86346  Biso   1.000  C
  C9       1.0000 0.67488  0.23711  0.27882  Biso   1.000  C
  C10      1.0000 0.81739  0.23264  0.72350  Biso   1.000  C
  C11      1.0000 0.17546  0.73953  0.78014  Biso   1.000  C
  C12      1.0000 0.31737  0.73127  0.22427  Biso   1.000  C
  C13      1.0000 0.31694  0.76644  0.72532  Biso   1.000  C
  C14      1.0000 0.17688  0.75779  0.27968  Biso   1.000  C
  C15      1.0000 0.81632  0.26450  0.22402  Biso   1.000  C
  C16      1.0000 0.67573  0.25997  0.77806  Biso   1.000  C
  H5       1.0000 0.52413  0.27613  0.26172  Biso   1.000  H
  H6       1.0000 0.96717  0.27335  0.73935  Biso   1.000  H
  H7       1.0000 0.02546  0.77970  0.76352  Biso   1.000  H
  H8       1.0000 0.46666  0.77288  0.23942  Biso   1.000  H
  H9       1.0000 0.46647  0.72551  0.74127  Biso   1.000  H
  H10      1.0000 0.02706  0.71701  0.26376  Biso   1.000  H
  H11      1.0000 0.96656  0.22470  0.24033  Biso   1.000  H
  H12      1.0000 0.52554  0.22002  0.76124  Biso   1.000  H
