data_image0
_cell_length_a       8.80716
_cell_length_b       8.80717
_cell_length_c       10.1637
_cell_angle_alpha    90.0372
_cell_angle_beta     89.9627
_cell_angle_gamma    120.047

_symmetry_space_group_name_H-M    "P 1"
_symmetry_int_tables_number       1

loop_
  _symmetry_equiv_pos_as_xyz
  'x, y, z'

loop_
  _atom_site_label
  _atom_site_occupancy
  _atom_site_fract_x
  _atom_site_fract_y
  _atom_site_fract_z
  _atom_site_thermal_displace_type
  _atom_site_B_iso_or_equiv
  _atom_site_type_symbol
  La1      1.0000 0.22061  0.22061  0.50000  Biso   1.000  La
  La2      1.0000 0.77917  0.00003  0.16667  Biso   1.000  La
  La3      1.0000 0.00004  0.77917  0.83333  Biso   1.000  La
  O1       1.0000 0.45674  0.15369  0.43798  Biso   1.000  O
  O2       1.0000 0.84673  0.30332  0.10486  Biso   1.000  O
  O3       1.0000 0.69672  0.54322  0.77129  Biso   1.000  O
  O4       1.0000 0.30332  0.84673  0.89515  Biso   1.000  O
  O5       1.0000 0.54322  0.69672  0.22871  Biso   1.000  O
  O6       1.0000 0.15370  0.45674  0.56202  Biso   1.000  O
  O7       1.0000 0.00006  0.25732  0.33341  Biso   1.000  O
  O8       1.0000 0.74268  0.74267  0.00000  Biso   1.000  O
  O9       1.0000 0.25733  0.00006  0.66659  Biso   1.000  O
  H1       1.0000 0.08459  0.36750  0.29067  Biso   1.000  H
  H2       1.0000 0.63264  0.71646  0.95686  Biso   1.000  H
  H3       1.0000 0.28362  0.91623  0.62352  Biso   1.000  H
  H4       1.0000 0.71646  0.63264  0.04314  Biso   1.000  H
  H5       1.0000 0.91622  0.28361  0.37648  Biso   1.000  H
  H6       1.0000 0.36751  0.08459  0.70933  Biso   1.000  H
  C1       1.0000 0.47823  0.09126  0.33131  Biso   1.000  C
  C2       1.0000 0.90887  0.38709  0.99810  Biso   1.000  C
  C3       1.0000 0.61284  0.52156  0.66468  Biso   1.000  C
  C4       1.0000 0.38710  0.90887  0.00190  Biso   1.000  C
  C5       1.0000 0.52156  0.61283  0.33532  Biso   1.000  C
  C6       1.0000 0.09126  0.47822  0.66869  Biso   1.000  C
  N1       1.0000 0.19843  0.05641  0.26582  Biso   1.000  N
  N2       1.0000 0.94359  0.14208  0.93258  Biso   1.000  N
  N3       1.0000 0.85793  0.80139  0.59911  Biso   1.000  N
  N4       1.0000 0.14209  0.94360  0.06742  Biso   1.000  N
  N5       1.0000 0.80140  0.85792  0.40089  Biso   1.000  N
  N6       1.0000 0.05640  0.19842  0.73418  Biso   1.000  N
  C7       1.0000 0.33652  0.03639  0.23053  Biso   1.000  C
  C8       1.0000 0.96369  0.30020  0.89731  Biso   1.000  C
  C9       1.0000 0.69968  0.66327  0.56386  Biso   1.000  C
  C10      1.0000 0.30021  0.96370  0.10269  Biso   1.000  C
  C11      1.0000 0.66327  0.69968  0.43613  Biso   1.000  C
  C12      1.0000 0.03638  0.33652  0.76947  Biso   1.000  C
  N7       1.0000 0.08357  0.99997  0.16663  Biso   1.000  N
  N8       1.0000 0.99996  0.08356  0.83336  Biso   1.000  N
  N9       1.0000 0.91637  0.91636  0.50000  Biso   1.000  N
  O10      1.0000 0.61065  0.07323  0.31077  Biso   1.000  O
  O11      1.0000 0.92658  0.53739  0.97746  Biso   1.000  O
  O12      1.0000 0.46233  0.38892  0.64417  Biso   1.000  O
  O13      1.0000 0.53740  0.92658  0.02254  Biso   1.000  O
  O14      1.0000 0.38893  0.46233  0.35583  Biso   1.000  O
  O15      1.0000 0.07323  0.61065  0.68923  Biso   1.000  O
