data_image0
_cell_length_a       19.1136
_cell_length_b       14.2578
_cell_length_c       7.5514
_cell_angle_alpha    90
_cell_angle_beta     90
_cell_angle_gamma    90

_symmetry_space_group_name_H-M    "P 1"
_symmetry_int_tables_number       1

loop_
  _symmetry_equiv_pos_as_xyz
  'x, y, z'

loop_
  _atom_site_label
  _atom_site_occupancy
  _atom_site_fract_x
  _atom_site_fract_y
  _atom_site_fract_z
  _atom_site_thermal_displace_type
  _atom_site_B_iso_or_equiv
  _atom_site_type_symbol
  O1       1.0000 0.32210  0.09071  0.25137  Biso   1.000  O
  O2       1.0000 0.82223  0.59052  0.74822  Biso   1.000  O
  O3       1.0000 0.67790  0.09071  0.25137  Biso   1.000  O
  O4       1.0000 0.17777  0.59052  0.74822  Biso   1.000  O
  O5       1.0000 0.32210  0.90929  0.25137  Biso   1.000  O
  O6       1.0000 0.82223  0.40948  0.74822  Biso   1.000  O
  O7       1.0000 0.67790  0.90929  0.25137  Biso   1.000  O
  O8       1.0000 0.17777  0.40948  0.74822  Biso   1.000  O
  O9       1.0000 0.67790  0.90929  0.74863  Biso   1.000  O
  O10      1.0000 0.17777  0.40948  0.25178  Biso   1.000  O
  O11      1.0000 0.32210  0.90929  0.74863  Biso   1.000  O
  O12      1.0000 0.82223  0.40948  0.25178  Biso   1.000  O
  O13      1.0000 0.67790  0.09071  0.74863  Biso   1.000  O
  O14      1.0000 0.17777  0.59052  0.25178  Biso   1.000  O
  O15      1.0000 0.32210  0.09071  0.74863  Biso   1.000  O
  O16      1.0000 0.82223  0.59052  0.25178  Biso   1.000  O
  O17      1.0000 0.38666  0.25041  0.32104  Biso   1.000  O
  O18      1.0000 0.88645  0.74965  0.82180  Biso   1.000  O
  O19      1.0000 0.61334  0.25041  0.32104  Biso   1.000  O
  O20      1.0000 0.11355  0.74965  0.82180  Biso   1.000  O
  O21      1.0000 0.38666  0.74959  0.32104  Biso   1.000  O
  O22      1.0000 0.88645  0.25035  0.82180  Biso   1.000  O
  O23      1.0000 0.61334  0.74959  0.32104  Biso   1.000  O
  O24      1.0000 0.11355  0.25035  0.82180  Biso   1.000  O
  O25      1.0000 0.61334  0.74959  0.67896  Biso   1.000  O
  O26      1.0000 0.11355  0.25035  0.17820  Biso   1.000  O
  O27      1.0000 0.38666  0.74959  0.67896  Biso   1.000  O
  O28      1.0000 0.88645  0.25035  0.17820  Biso   1.000  O
  O29      1.0000 0.61334  0.25041  0.67896  Biso   1.000  O
  O30      1.0000 0.11355  0.74965  0.17820  Biso   1.000  O
  O31      1.0000 0.38666  0.25041  0.67896  Biso   1.000  O
  O32      1.0000 0.88645  0.74965  0.17820  Biso   1.000  O
  O33      1.0000 0.34400  0.21785  0.00000  Biso   1.000  O
  O34      1.0000 0.84417  0.71958  0.50000  Biso   1.000  O
  O35      1.0000 0.65600  0.21785  0.00000  Biso   1.000  O
  O36      1.0000 0.15583  0.71958  0.50000  Biso   1.000  O
  O37      1.0000 0.34400  0.78215  0.00000  Biso   1.000  O
  O38      1.0000 0.84417  0.28042  0.50000  Biso   1.000  O
  O39      1.0000 0.65600  0.78215  0.00000  Biso   1.000  O
  O40      1.0000 0.15583  0.28042  0.50000  Biso   1.000  O
  O41      1.0000 0.25023  0.25055  0.25044  Biso   1.000  O
  O42      1.0000 0.74977  0.74945  0.74956  Biso   1.000  O
  O43      1.0000 0.74977  0.25055  0.25044  Biso   1.000  O
  O44      1.0000 0.25023  0.74945  0.74956  Biso   1.000  O
  O45      1.0000 0.25023  0.74945  0.25044  Biso   1.000  O
  O46      1.0000 0.74977  0.25055  0.74956  Biso   1.000  O
  O47      1.0000 0.74977  0.74945  0.25044  Biso   1.000  O
  O48      1.0000 0.25023  0.25055  0.74956  Biso   1.000  O
  O49      1.0000 0.10309  0.09052  1.00000  Biso   1.000  O
  O50      1.0000 0.60327  0.59032  0.50000  Biso   1.000  O
  O51      1.0000 0.89691  0.09052  1.00000  Biso   1.000  O
  O52      1.0000 0.39673  0.59032  0.50000  Biso   1.000  O
  O53      1.0000 0.10309  0.90948  1.00000  Biso   1.000  O
  O54      1.0000 0.60327  0.40968  0.50000  Biso   1.000  O
  O55      1.0000 0.89691  0.90948  1.00000  Biso   1.000  O
  O56      1.0000 0.39673  0.40968  0.50000  Biso   1.000  O
  O57      1.0000 0.00000  0.21384  1.00000  Biso   1.000  O
  O58      1.0000 0.50000  0.71290  0.50000  Biso   1.000  O
  O59      1.0000 1.00000  0.78616  1.00000  Biso   1.000  O
  O60      1.0000 0.50000  0.28710  0.50000  Biso   1.000  O
  O61      1.0000 0.20213  0.00000  0.17752  Biso   1.000  O
  O62      1.0000 0.70200  0.50000  0.67819  Biso   1.000  O
  O63      1.0000 0.79787  1.00000  0.17752  Biso   1.000  O
  O64      1.0000 0.29800  0.50000  0.67819  Biso   1.000  O
  O65      1.0000 0.79787  1.00000  0.82248  Biso   1.000  O
  O66      1.0000 0.29800  0.50000  0.32181  Biso   1.000  O
  O67      1.0000 0.20213  0.00000  0.82248  Biso   1.000  O
  O68      1.0000 0.70200  0.50000  0.32181  Biso   1.000  O
  O69      1.0000 0.24914  1.00000  0.50000  Biso   1.000  O
  O70      1.0000 0.75045  0.50000  0.00000  Biso   1.000  O
  O71      1.0000 0.75086  1.00000  0.50000  Biso   1.000  O
  O72      1.0000 0.24955  0.50000  0.00000  Biso   1.000  O
  Si1      1.0000 0.32502  0.20219  0.20664  Biso   1.000  Si
  Si2      1.0000 0.82494  0.70221  0.70597  Biso   1.000  Si
  Si3      1.0000 0.67498  0.20219  0.20664  Biso   1.000  Si
  Si4      1.0000 0.17506  0.70221  0.70597  Biso   1.000  Si
  Si5      1.0000 0.32502  0.79781  0.20664  Biso   1.000  Si
  Si6      1.0000 0.82494  0.29779  0.70597  Biso   1.000  Si
  Si7      1.0000 0.67498  0.79781  0.20664  Biso   1.000  Si
  Si8      1.0000 0.17506  0.29779  0.70597  Biso   1.000  Si
  Si9      1.0000 0.67498  0.79781  0.79336  Biso   1.000  Si
  Si10     1.0000 0.17506  0.29779  0.29403  Biso   1.000  Si
  Si11     1.0000 0.32502  0.79781  0.79336  Biso   1.000  Si
  Si12     1.0000 0.82494  0.29779  0.29403  Biso   1.000  Si
  Si13     1.0000 0.67498  0.20219  0.79336  Biso   1.000  Si
  Si14     1.0000 0.17506  0.70221  0.29403  Biso   1.000  Si
  Si15     1.0000 0.32502  0.20219  0.79336  Biso   1.000  Si
  Si16     1.0000 0.82494  0.70221  0.29403  Biso   1.000  Si
  Si17     1.0000 0.08362  0.20115  0.00000  Biso   1.000  Si
  Si18     1.0000 0.58362  0.70078  0.50000  Biso   1.000  Si
  Si19     1.0000 0.91638  0.20115  0.00000  Biso   1.000  Si
  Si20     1.0000 0.41638  0.70078  0.50000  Biso   1.000  Si
  Si21     1.0000 0.08362  0.79885  0.00000  Biso   1.000  Si
  Si22     1.0000 0.58362  0.29922  0.50000  Biso   1.000  Si
  Si23     1.0000 0.91638  0.79885  0.00000  Biso   1.000  Si
  Si24     1.0000 0.41638  0.29922  0.50000  Biso   1.000  Si
  Si25     1.0000 0.27356  1.00000  0.29411  Biso   1.000  Si
  Si26     1.0000 0.77384  0.50000  0.79322  Biso   1.000  Si
  Si27     1.0000 0.72644  1.00000  0.29411  Biso   1.000  Si
  Si28     1.0000 0.22616  0.50000  0.79322  Biso   1.000  Si
  Si29     1.0000 0.72644  1.00000  0.70589  Biso   1.000  Si
  Si30     1.0000 0.22616  0.50000  0.20679  Biso   1.000  Si
  Si31     1.0000 0.27356  0.00000  0.70589  Biso   1.000  Si
  Si32     1.0000 0.77384  0.50000  0.20679  Biso   1.000  Si
  Si33     1.0000 0.15397  0.00000  1.00000  Biso   1.000  Si
  Si34     1.0000 0.65419  0.50000  0.50000  Biso   1.000  Si
  Si35     1.0000 0.84603  1.00000  1.00000  Biso   1.000  Si
  Si36     1.0000 0.34581  0.50000  0.50000  Biso   1.000  Si
