data_image0
_cell_length_a       10.2146
_cell_length_b       24.0955
_cell_length_c       8.68881
_cell_angle_alpha    90
_cell_angle_beta     90
_cell_angle_gamma    89.9306

_symmetry_space_group_name_H-M    "P 1"
_symmetry_int_tables_number       1

loop_
  _symmetry_equiv_pos_as_xyz
  'x, y, z'

loop_
  _atom_site_label
  _atom_site_occupancy
  _atom_site_fract_x
  _atom_site_fract_y
  _atom_site_fract_z
  _atom_site_thermal_displace_type
  _atom_site_B_iso_or_equiv
  _atom_site_type_symbol
  Sr1      1.0000 0.25000  0.25000  0.74100  Biso   1.000  Sr
  Sr2      1.0000 0.75000  0.75000  0.74100  Biso   1.000  Sr
  Sr3      1.0000 0.50000  1.00000  0.99047  Biso   1.000  Sr
  Sr4      1.0000 1.00000  0.50000  0.99047  Biso   1.000  Sr
  Sr5      1.0000 0.25000  0.75000  0.24100  Biso   1.000  Sr
  Sr6      1.0000 0.75000  0.25000  0.24100  Biso   1.000  Sr
  Sr7      1.0000 0.50000  0.50000  0.49047  Biso   1.000  Sr
  Sr8      1.0000 1.00000  0.00000  0.49047  Biso   1.000  Sr
  N1       1.0000 0.08707  0.18576  0.89357  Biso   1.000  N
  N2       1.0000 0.91293  0.81424  0.89357  Biso   1.000  N
  N3       1.0000 0.33703  0.06421  0.14360  Biso   1.000  N
  N4       1.0000 0.16297  0.43579  0.14360  Biso   1.000  N
  N5       1.0000 0.08707  0.68576  0.39357  Biso   1.000  N
  N6       1.0000 0.91293  0.31424  0.39357  Biso   1.000  N
  N7       1.0000 0.33703  0.56421  0.64360  Biso   1.000  N
  N8       1.0000 0.16297  0.93579  0.64360  Biso   1.000  N
  N9       1.0000 0.58707  0.18576  0.39357  Biso   1.000  N
  N10      1.0000 0.41293  0.81424  0.39357  Biso   1.000  N
  N11      1.0000 0.83703  0.06421  0.64360  Biso   1.000  N
  N12      1.0000 0.66297  0.43579  0.64360  Biso   1.000  N
  N13      1.0000 0.58707  0.68576  0.89357  Biso   1.000  N
  N14      1.0000 0.41293  0.31424  0.89357  Biso   1.000  N
  N15      1.0000 0.83703  0.56421  0.14360  Biso   1.000  N
  N16      1.0000 0.66297  0.93579  0.14360  Biso   1.000  N
  N17      1.0000 0.05467  0.09527  0.95809  Biso   1.000  N
  N18      1.0000 0.94533  0.90473  0.95809  Biso   1.000  N
  N19      1.0000 0.30441  0.15462  0.20904  Biso   1.000  N
  N20      1.0000 0.19559  0.34538  0.20904  Biso   1.000  N
  N21      1.0000 0.05467  0.59527  0.45809  Biso   1.000  N
  N22      1.0000 0.94533  0.40473  0.45809  Biso   1.000  N
  N23      1.0000 0.30441  0.65462  0.70904  Biso   1.000  N
  N24      1.0000 0.19559  0.84538  0.70904  Biso   1.000  N
  N25      1.0000 0.55467  0.09527  0.45809  Biso   1.000  N
  N26      1.0000 0.44533  0.90473  0.45809  Biso   1.000  N
  N27      1.0000 0.80441  0.15462  0.70904  Biso   1.000  N
  N28      1.0000 0.69559  0.34538  0.70904  Biso   1.000  N
  N29      1.0000 0.55467  0.59527  0.95809  Biso   1.000  N
  N30      1.0000 0.44533  0.40473  0.95809  Biso   1.000  N
  N31      1.0000 0.80441  0.65462  0.20904  Biso   1.000  N
  N32      1.0000 0.69559  0.84538  0.20904  Biso   1.000  N
  N33      1.0000 0.01816  0.12955  0.07564  Biso   1.000  N
  N34      1.0000 0.98184  0.87045  0.07564  Biso   1.000  N
  N35      1.0000 0.26782  0.12022  0.32617  Biso   1.000  N
  N36      1.0000 0.23218  0.37978  0.32617  Biso   1.000  N
  N37      1.0000 0.01816  0.62955  0.57564  Biso   1.000  N
  N38      1.0000 0.98184  0.37045  0.57564  Biso   1.000  N
  N39      1.0000 0.26782  0.62022  0.82617  Biso   1.000  N
  N40      1.0000 0.23218  0.87978  0.82617  Biso   1.000  N
  N41      1.0000 0.51816  0.12955  0.57564  Biso   1.000  N
  N42      1.0000 0.48184  0.87045  0.57564  Biso   1.000  N
  N43      1.0000 0.76782  0.12022  0.82617  Biso   1.000  N
  N44      1.0000 0.73218  0.37978  0.82617  Biso   1.000  N
  N45      1.0000 0.51816  0.62955  0.07564  Biso   1.000  N
  N46      1.0000 0.48184  0.37045  0.07564  Biso   1.000  N
  N47      1.0000 0.76782  0.62022  0.32617  Biso   1.000  N
  N48      1.0000 0.73218  0.87978  0.32617  Biso   1.000  N
  N49      1.0000 0.00873  0.22848  0.12721  Biso   1.000  N
  N50      1.0000 0.99127  0.77152  0.12721  Biso   1.000  N
  N51      1.0000 0.25863  0.02118  0.37661  Biso   1.000  N
  N52      1.0000 0.24137  0.47882  0.37661  Biso   1.000  N
  N53      1.0000 0.00873  0.72848  0.62721  Biso   1.000  N
  N54      1.0000 0.99127  0.27152  0.62721  Biso   1.000  N
  N55      1.0000 0.25863  0.52118  0.87661  Biso   1.000  N
  N56      1.0000 0.24137  0.97882  0.87661  Biso   1.000  N
  N57      1.0000 0.50873  0.22848  0.62721  Biso   1.000  N
  N58      1.0000 0.49127  0.77152  0.62721  Biso   1.000  N
  N59      1.0000 0.75863  0.02118  0.87661  Biso   1.000  N
  N60      1.0000 0.74137  0.47882  0.87661  Biso   1.000  N
  N61      1.0000 0.50873  0.72848  0.12721  Biso   1.000  N
  N62      1.0000 0.49127  0.27152  0.12721  Biso   1.000  N
  N63      1.0000 0.75863  0.52118  0.37661  Biso   1.000  N
  N64      1.0000 0.74137  0.97882  0.37661  Biso   1.000  N
  O1       1.0000 0.19459  0.15427  0.61526  Biso   1.000  O
  O2       1.0000 0.80541  0.84573  0.61526  Biso   1.000  O
  O3       1.0000 0.44485  0.09608  0.86589  Biso   1.000  O
  O4       1.0000 0.05515  0.40392  0.86589  Biso   1.000  O
  O5       1.0000 0.19459  0.65427  0.11526  Biso   1.000  O
  O6       1.0000 0.80541  0.34573  0.11526  Biso   1.000  O
  O7       1.0000 0.44485  0.59608  0.36589  Biso   1.000  O
  O8       1.0000 0.05515  0.90392  0.36589  Biso   1.000  O
  O9       1.0000 0.69459  0.15427  0.11526  Biso   1.000  O
  O10      1.0000 0.30541  0.84573  0.11526  Biso   1.000  O
  O11      1.0000 0.94485  0.09608  0.36589  Biso   1.000  O
  O12      1.0000 0.55515  0.40392  0.36589  Biso   1.000  O
  O13      1.0000 0.69459  0.65427  0.61526  Biso   1.000  O
  O14      1.0000 0.30541  0.34573  0.61526  Biso   1.000  O
  O15      1.0000 0.94485  0.59608  0.86589  Biso   1.000  O
  O16      1.0000 0.55515  0.90392  0.86589  Biso   1.000  O
  O17      1.0000 0.14645  0.06389  0.65999  Biso   1.000  O
  O18      1.0000 0.85355  0.93611  0.65999  Biso   1.000  O
  O19      1.0000 0.39657  0.18644  0.91182  Biso   1.000  O
  O20      1.0000 0.10343  0.31356  0.91182  Biso   1.000  O
  O21      1.0000 0.14645  0.56389  0.15999  Biso   1.000  O
  O22      1.0000 0.85355  0.43611  0.15999  Biso   1.000  O
  O23      1.0000 0.39657  0.68644  0.41182  Biso   1.000  O
  O24      1.0000 0.10343  0.81356  0.41182  Biso   1.000  O
  O25      1.0000 0.64645  0.06389  0.15999  Biso   1.000  O
  O26      1.0000 0.35355  0.93611  0.15999  Biso   1.000  O
  O27      1.0000 0.89657  0.18644  0.41182  Biso   1.000  O
  O28      1.0000 0.60343  0.31356  0.41182  Biso   1.000  O
  O29      1.0000 0.64645  0.56389  0.65999  Biso   1.000  O
  O30      1.0000 0.35355  0.43611  0.65999  Biso   1.000  O
  O31      1.0000 0.89657  0.68644  0.91182  Biso   1.000  O
  O32      1.0000 0.60343  0.81356  0.91182  Biso   1.000  O
  C1       1.0000 0.03907  0.18342  0.03625  Biso   1.000  C
  C2       1.0000 0.96093  0.81658  0.03625  Biso   1.000  C
  C3       1.0000 0.28890  0.06640  0.28624  Biso   1.000  C
  C4       1.0000 0.21110  0.43360  0.28624  Biso   1.000  C
  C5       1.0000 0.03907  0.68342  0.53625  Biso   1.000  C
  C6       1.0000 0.96093  0.31658  0.53625  Biso   1.000  C
  C7       1.0000 0.28890  0.56640  0.78624  Biso   1.000  C
  C8       1.0000 0.21110  0.93360  0.78624  Biso   1.000  C
  C9       1.0000 0.53907  0.18342  0.53625  Biso   1.000  C
  C10      1.0000 0.46093  0.81658  0.53625  Biso   1.000  C
  C11      1.0000 0.78890  0.06640  0.78624  Biso   1.000  C
  C12      1.0000 0.71110  0.43360  0.78624  Biso   1.000  C
  C13      1.0000 0.53907  0.68342  0.03625  Biso   1.000  C
  C14      1.0000 0.46093  0.31658  0.03625  Biso   1.000  C
  C15      1.0000 0.78890  0.56640  0.28624  Biso   1.000  C
  C16      1.0000 0.71110  0.93360  0.28624  Biso   1.000  C
  C17      1.0000 0.09496  0.13100  0.85076  Biso   1.000  C
  C18      1.0000 0.90504  0.86900  0.85076  Biso   1.000  C
  C19      1.0000 0.34488  0.11903  0.10140  Biso   1.000  C
  C20      1.0000 0.15512  0.38097  0.10140  Biso   1.000  C
  C21      1.0000 0.09496  0.63100  0.35076  Biso   1.000  C
  C22      1.0000 0.90504  0.36900  0.35076  Biso   1.000  C
  C23      1.0000 0.34488  0.61903  0.60140  Biso   1.000  C
  C24      1.0000 0.15512  0.88097  0.60140  Biso   1.000  C
  C25      1.0000 0.59496  0.13100  0.35076  Biso   1.000  C
  C26      1.0000 0.40504  0.86900  0.35076  Biso   1.000  C
  C27      1.0000 0.84488  0.11903  0.60140  Biso   1.000  C
  C28      1.0000 0.65512  0.38097  0.60140  Biso   1.000  C
  C29      1.0000 0.59496  0.63100  0.85076  Biso   1.000  C
  C30      1.0000 0.40504  0.36900  0.85076  Biso   1.000  C
  C31      1.0000 0.84488  0.61903  0.10140  Biso   1.000  C
  C32      1.0000 0.65512  0.88097  0.10140  Biso   1.000  C
  C33      1.0000 0.14859  0.11473  0.69827  Biso   1.000  C
  C34      1.0000 0.85141  0.88527  0.69827  Biso   1.000  C
  C35      1.0000 0.39870  0.13551  0.94927  Biso   1.000  C
  C36      1.0000 0.10130  0.36449  0.94927  Biso   1.000  C
  C37      1.0000 0.14859  0.61473  0.19827  Biso   1.000  C
  C38      1.0000 0.85141  0.38527  0.19827  Biso   1.000  C
  C39      1.0000 0.39870  0.63551  0.44927  Biso   1.000  C
  C40      1.0000 0.10130  0.86449  0.44927  Biso   1.000  C
  C41      1.0000 0.64859  0.11473  0.19827  Biso   1.000  C
  C42      1.0000 0.35141  0.88527  0.19827  Biso   1.000  C
  C43      1.0000 0.89870  0.13551  0.44927  Biso   1.000  C
  C44      1.0000 0.60130  0.36449  0.44927  Biso   1.000  C
  C45      1.0000 0.64859  0.61473  0.69827  Biso   1.000  C
  C46      1.0000 0.35141  0.38527  0.69827  Biso   1.000  C
  C47      1.0000 0.89870  0.63551  0.94927  Biso   1.000  C
  C48      1.0000 0.60130  0.86449  0.94927  Biso   1.000  C
  H1       1.0000 0.98681  0.11460  0.18329  Biso   1.000  H
  H2       1.0000 0.01319  0.88540  0.18329  Biso   1.000  H
  H3       1.0000 0.23641  0.13520  0.43390  Biso   1.000  H
  H4       1.0000 0.26359  0.36480  0.43390  Biso   1.000  H
  H5       1.0000 0.98681  0.61460  0.68329  Biso   1.000  H
  H6       1.0000 0.01319  0.38540  0.68329  Biso   1.000  H
  H7       1.0000 0.23641  0.63520  0.93390  Biso   1.000  H
  H8       1.0000 0.26359  0.86480  0.93390  Biso   1.000  H
  H9       1.0000 0.48681  0.11460  0.68329  Biso   1.000  H
  H10      1.0000 0.51319  0.88540  0.68329  Biso   1.000  H
  H11      1.0000 0.73641  0.13520  0.93390  Biso   1.000  H
  H12      1.0000 0.76359  0.36480  0.93390  Biso   1.000  H
  H13      1.0000 0.48681  0.61460  0.18329  Biso   1.000  H
  H14      1.0000 0.51319  0.38540  0.18329  Biso   1.000  H
  H15      1.0000 0.73641  0.63520  0.43390  Biso   1.000  H
  H16      1.0000 0.76359  0.86480  0.43390  Biso   1.000  H
  H17      1.0000 0.05600  0.26364  0.08900  Biso   1.000  H
  H18      1.0000 0.94400  0.73636  0.08900  Biso   1.000  H
  H19      1.0000 0.30603  0.98607  0.33798  Biso   1.000  H
  H20      1.0000 0.19397  0.51393  0.33798  Biso   1.000  H
  H21      1.0000 0.05600  0.76364  0.58900  Biso   1.000  H
  H22      1.0000 0.94400  0.23636  0.58900  Biso   1.000  H
  H23      1.0000 0.30603  0.48607  0.83798  Biso   1.000  H
  H24      1.0000 0.19397  0.01393  0.83798  Biso   1.000  H
  H25      1.0000 0.55600  0.26364  0.58900  Biso   1.000  H
  H26      1.0000 0.44400  0.73636  0.58900  Biso   1.000  H
  H27      1.0000 0.80603  0.98607  0.83798  Biso   1.000  H
  H28      1.0000 0.69397  0.51393  0.83798  Biso   1.000  H
  H29      1.0000 0.55600  0.76364  0.08900  Biso   1.000  H
  H30      1.0000 0.44400  0.23636  0.08900  Biso   1.000  H
  H31      1.0000 0.80603  0.48607  0.33798  Biso   1.000  H
  H32      1.0000 0.69397  0.01393  0.33798  Biso   1.000  H
  H33      1.0000 0.02388  0.22109  0.24192  Biso   1.000  H
  H34      1.0000 0.97612  0.77891  0.24192  Biso   1.000  H
  H35      1.0000 0.27399  0.02839  0.49135  Biso   1.000  H
  H36      1.0000 0.22601  0.47161  0.49135  Biso   1.000  H
  H37      1.0000 0.02388  0.72109  0.74192  Biso   1.000  H
  H38      1.0000 0.97612  0.27891  0.74192  Biso   1.000  H
  H39      1.0000 0.27399  0.52839  0.99135  Biso   1.000  H
  H40      1.0000 0.22601  0.97161  0.99135  Biso   1.000  H
  H41      1.0000 0.52388  0.22109  0.74192  Biso   1.000  H
  H42      1.0000 0.47612  0.77891  0.74192  Biso   1.000  H
  H43      1.0000 0.77399  0.02839  0.99135  Biso   1.000  H
  H44      1.0000 0.72601  0.47161  0.99135  Biso   1.000  H
  H45      1.0000 0.52388  0.72109  0.24192  Biso   1.000  H
  H46      1.0000 0.47612  0.27891  0.24192  Biso   1.000  H
  H47      1.0000 0.77399  0.52839  0.49135  Biso   1.000  H
  H48      1.0000 0.72601  0.97161  0.49135  Biso   1.000  H
