data_image0
_cell_length_a       17.1707
_cell_length_b       21.8562
_cell_length_c       14.0235
_cell_angle_alpha    90.0018
_cell_angle_beta     90.0116
_cell_angle_gamma    90.092

_symmetry_space_group_name_H-M    "P 1"
_symmetry_int_tables_number       1

loop_
  _symmetry_equiv_pos_as_xyz
  'x, y, z'

loop_
  _atom_site_label
  _atom_site_occupancy
  _atom_site_fract_x
  _atom_site_fract_y
  _atom_site_fract_z
  _atom_site_thermal_displace_type
  _atom_site_B_iso_or_equiv
  _atom_site_type_symbol
  C1       1.0000 0.35904  0.16741  0.61651  Biso   1.000  C
  C2       1.0000 0.14096  0.83049  0.61627  Biso   1.000  C
  C3       1.0000 0.36003  0.33221  0.88317  Biso   1.000  C
  C4       1.0000 0.14113  0.66587  0.88380  Biso   1.000  C
  C5       1.0000 0.64089  0.83056  0.38430  Biso   1.000  C
  C6       1.0000 0.85976  0.16964  0.38389  Biso   1.000  C
  C7       1.0000 0.64116  0.66744  0.11645  Biso   1.000  C
  C8       1.0000 0.85949  0.33324  0.11626  Biso   1.000  C
  C9       1.0000 0.42600  0.16546  0.54740  Biso   1.000  C
  C10      1.0000 0.07433  0.83237  0.54693  Biso   1.000  C
  C11      1.0000 0.42669  0.33523  0.95233  Biso   1.000  C
  C12      1.0000 0.07441  0.66379  0.95305  Biso   1.000  C
  C13      1.0000 0.57408  0.83234  0.45356  Biso   1.000  C
  C14      1.0000 0.92701  0.16763  0.45287  Biso   1.000  C
  C15      1.0000 0.57387  0.66467  0.04788  Biso   1.000  C
  C16      1.0000 0.92652  0.33544  0.04754  Biso   1.000  C
  C17      1.0000 0.43988  0.21385  0.48385  Biso   1.000  C
  C18      1.0000 0.06089  0.78418  0.48287  Biso   1.000  C
  C19      1.0000 0.44035  0.28703  0.01610  Biso   1.000  C
  C20      1.0000 0.06099  0.71198  0.01700  Biso   1.000  C
  C21      1.0000 0.56030  0.78403  0.51745  Biso   1.000  C
  C22      1.0000 0.94143  0.21565  0.51691  Biso   1.000  C
  C23      1.0000 0.55998  0.71294  0.98418  Biso   1.000  C
  C24      1.0000 0.94025  0.28710  0.98401  Biso   1.000  C
  C25      1.0000 0.50401  0.21379  0.42271  Biso   1.000  C
  C26      1.0000 0.99779  0.78512  0.42018  Biso   1.000  C
  C27      1.0000 0.50442  0.28723  0.07712  Biso   1.000  C
  C28      1.0000 0.99780  0.71113  0.07950  Biso   1.000  C
  C29      1.0000 0.49669  0.78491  0.57953  Biso   1.000  C
  C30      1.0000 0.00465  0.21436  0.57949  Biso   1.000  C
  C31      1.0000 0.49586  0.71276  0.92319  Biso   1.000  C
  C32      1.0000 0.00451  0.28717  0.92315  Biso   1.000  C
  C33      1.0000 0.55678  0.16477  0.42243  Biso   1.000  C
  C34      1.0000 0.94470  0.83388  0.42013  Biso   1.000  C
  C35      1.0000 0.55743  0.33618  0.07717  Biso   1.000  C
  C36      1.0000 0.94451  0.66245  0.07925  Biso   1.000  C
  C37      1.0000 0.44393  0.83389  0.57937  Biso   1.000  C
  C38      1.0000 0.05693  0.16499  0.57948  Biso   1.000  C
  C39      1.0000 0.44300  0.66378  0.92311  Biso   1.000  C
  C40      1.0000 0.05769  0.33599  0.92335  Biso   1.000  C
  C41      1.0000 0.54277  0.11630  0.48582  Biso   1.000  C
  C42      1.0000 0.95767  0.88178  0.48488  Biso   1.000  C
  C43      1.0000 0.54333  0.38485  0.01408  Biso   1.000  C
  C44      1.0000 0.95764  0.61446  0.01487  Biso   1.000  C
  C45      1.0000 0.45732  0.88185  0.51497  Biso   1.000  C
  C46      1.0000 0.04294  0.11707  0.51498  Biso   1.000  C
  C47      1.0000 0.45699  0.61515  0.98621  Biso   1.000  C
  C48      1.0000 0.04342  0.38468  0.98620  Biso   1.000  C
  C49      1.0000 0.47864  0.11641  0.54700  Biso   1.000  C
  C50      1.0000 0.02161  0.88130  0.54635  Biso   1.000  C
  C51      1.0000 0.47903  0.38457  0.95294  Biso   1.000  C
  C52      1.0000 0.02160  0.61479  0.95353  Biso   1.000  C
  C53      1.0000 0.52143  0.88131  0.45378  Biso   1.000  C
  C54      1.0000 0.97908  0.11821  0.45339  Biso   1.000  C
  C55      1.0000 0.52131  0.61540  0.04733  Biso   1.000  C
  C56      1.0000 0.97913  0.38457  0.04708  Biso   1.000  C
  C57      1.0000 0.62610  0.16420  0.35725  Biso   1.000  C
  C58      1.0000 0.87524  0.83448  0.35487  Biso   1.000  C
  C59      1.0000 0.62689  0.33617  0.14238  Biso   1.000  C
  C60      1.0000 0.87525  0.66201  0.14466  Biso   1.000  C
  C61      1.0000 0.37456  0.83452  0.64474  Biso   1.000  C
  C62      1.0000 0.12606  0.16377  0.64492  Biso   1.000  C
  C63      1.0000 0.37386  0.66353  0.85755  Biso   1.000  C
  C64      1.0000 0.12738  0.33614  0.85851  Biso   1.000  C
  C65      1.0000 0.13339  0.99458  0.87171  Biso   1.000  C
  C66      1.0000 0.36679  0.00346  0.86968  Biso   1.000  C
  C67      1.0000 0.13551  0.50387  0.62694  Biso   1.000  C
  C68      1.0000 0.36739  0.49467  0.62921  Biso   1.000  C
  C69      1.0000 0.86668  0.00521  0.13145  Biso   1.000  C
  C70      1.0000 0.63329  0.99489  0.13024  Biso   1.000  C
  C71      1.0000 0.86510  0.49588  0.37309  Biso   1.000  C
  C72      1.0000 0.63355  0.50415  0.36966  Biso   1.000  C
  C73      1.0000 0.06460  0.99730  0.93813  Biso   1.000  C
  C74      1.0000 0.43452  0.00152  0.93754  Biso   1.000  C
  C75      1.0000 0.06666  0.50155  0.56069  Biso   1.000  C
  C76      1.0000 0.43546  0.49706  0.56197  Biso   1.000  C
  C77      1.0000 0.93467  0.00276  0.06419  Biso   1.000  C
  C78      1.0000 0.56450  0.99733  0.06386  Biso   1.000  C
  C79      1.0000 0.93368  0.49846  0.43962  Biso   1.000  C
  C80      1.0000 0.56594  0.50164  0.43745  Biso   1.000  C
  C81      1.0000 0.01546  0.04860  0.94001  Biso   1.000  C
  C82      1.0000 0.48431  0.95075  0.93972  Biso   1.000  C
  C83      1.0000 0.01676  0.45061  0.55911  Biso   1.000  C
  C84      1.0000 0.48537  0.54792  0.56083  Biso   1.000  C
  C85      1.0000 0.98325  0.95124  0.06160  Biso   1.000  C
  C86      1.0000 0.51486  0.04827  0.06150  Biso   1.000  C
  C87      1.0000 0.98346  0.54942  0.44117  Biso   1.000  C
  C88      1.0000 0.51642  0.45040  0.43899  Biso   1.000  C
  C89      1.0000 0.95224  0.05132  0.00245  Biso   1.000  C
  C90      1.0000 0.54747  0.94854  0.00225  Biso   1.000  C
  C91      1.0000 0.95136  0.44930  0.50002  Biso   1.000  C
  C92      1.0000 0.54940  0.55017  0.49964  Biso   1.000  C
  C93      1.0000 0.04715  0.94877  0.00019  Biso   1.000  C
  C94      1.0000 0.45089  0.04995  0.00004  Biso   1.000  C
  C95      1.0000 0.04888  0.55073  0.50027  Biso   1.000  C
  C96      1.0000 0.45198  0.44856  0.49973  Biso   1.000  C
  F1       1.0000 0.39007  0.26142  0.47900  Biso   1.000  F
  F2       1.0000 0.10998  0.73609  0.47893  Biso   1.000  F
  F3       1.0000 0.39007  0.23965  0.02114  Biso   1.000  F
  F4       1.0000 0.11015  0.76006  0.02107  Biso   1.000  F
  F5       1.0000 0.60971  0.73609  0.52126  Biso   1.000  F
  F6       1.0000 0.89312  0.26412  0.52106  Biso   1.000  F
  F7       1.0000 0.61009  0.76038  0.97893  Biso   1.000  F
  F8       1.0000 0.89003  0.23976  0.97891  Biso   1.000  F
  F9       1.0000 0.51313  0.26123  0.36255  Biso   1.000  F
  F10      1.0000 0.99000  0.73854  0.35823  Biso   1.000  F
  F11      1.0000 0.51325  0.23995  0.13763  Biso   1.000  F
  F12      1.0000 0.99005  0.75754  0.14167  Biso   1.000  F
  F13      1.0000 0.48729  0.73842  0.64139  Biso   1.000  F
  F14      1.0000 0.01321  0.26108  0.64129  Biso   1.000  F
  F15      1.0000 0.48683  0.75999  0.86254  Biso   1.000  F
  F16      1.0000 0.01325  0.23998  0.86252  Biso   1.000  F
  F17      1.0000 0.59319  0.06911  0.49182  Biso   1.000  F
  F18      1.0000 0.90675  0.92829  0.49171  Biso   1.000  F
  F19      1.0000 0.59338  0.43214  0.00835  Biso   1.000  F
  F20      1.0000 0.90665  0.56761  0.00825  Biso   1.000  F
  F21      1.0000 0.40666  0.92850  0.50824  Biso   1.000  F
  F22      1.0000 0.09285  0.06947  0.50826  Biso   1.000  F
  F23      1.0000 0.40676  0.56791  0.99171  Biso   1.000  F
  F24      1.0000 0.09344  0.43224  0.99177  Biso   1.000  F
  F25      1.0000 0.47014  0.06939  0.60819  Biso   1.000  F
  F26      1.0000 0.02988  0.92809  0.60830  Biso   1.000  F
  F27      1.0000 0.47017  0.43173  0.89197  Biso   1.000  F
  F28      1.0000 0.02986  0.56794  0.89176  Biso   1.000  F
  F29      1.0000 0.52987  0.92807  0.39178  Biso   1.000  F
  F30      1.0000 0.97016  0.07171  0.39152  Biso   1.000  F
  F31      1.0000 0.52994  0.56819  0.10819  Biso   1.000  F
  F32      1.0000 0.97020  0.43188  0.10799  Biso   1.000  F
  F33      1.0000 0.02669  0.09574  0.87956  Biso   1.000  F
  F34      1.0000 0.47344  0.90377  0.87920  Biso   1.000  F
  F35      1.0000 0.02984  0.40255  0.61684  Biso   1.000  F
  F36      1.0000 0.47355  0.59491  0.62092  Biso   1.000  F
  F37      1.0000 0.97033  0.90385  0.12077  Biso   1.000  F
  F38      1.0000 0.52651  0.09591  0.12073  Biso   1.000  F
  F39      1.0000 0.97022  0.59740  0.38327  Biso   1.000  F
  F40      1.0000 0.52921  0.40296  0.37967  Biso   1.000  F
  F41      1.0000 0.90654  0.10147  0.99989  Biso   1.000  F
  F42      1.0000 0.59347  0.89858  0.99981  Biso   1.000  F
  F43      1.0000 0.90374  0.40007  0.50425  Biso   1.000  F
  F44      1.0000 0.59650  0.59971  0.50404  Biso   1.000  F
  F45      1.0000 0.09326  0.89880  0.00413  Biso   1.000  F
  F46      1.0000 0.40327  0.09894  0.00416  Biso   1.000  F
  F47      1.0000 0.09640  0.59998  0.49580  Biso   1.000  F
  F48      1.0000 0.40378  0.39976  0.49560  Biso   1.000  F
  In1      1.0000 0.25285  0.24959  0.75192  Biso   1.000  In
  In2      1.0000 0.24880  0.74886  0.75072  Biso   1.000  In
  In3      1.0000 0.74865  0.74911  0.24946  Biso   1.000  In
  In4      1.0000 0.75150  0.25009  0.24908  Biso   1.000  In
  In5      1.0000 0.25039  0.08210  0.75053  Biso   1.000  In
  In6      1.0000 0.24996  0.91566  0.75109  Biso   1.000  In
  In7      1.0000 0.25102  0.41639  0.74853  Biso   1.000  In
  In8      1.0000 0.25130  0.58242  0.74876  Biso   1.000  In
  In9      1.0000 0.75027  0.91611  0.24987  Biso   1.000  In
  In10     1.0000 0.75062  0.08292  0.25106  Biso   1.000  In
  In11     1.0000 0.74970  0.58257  0.25081  Biso   1.000  In
  In12     1.0000 0.75025  0.41675  0.25129  Biso   1.000  In
  O1       1.0000 0.34664  0.21935  0.65449  Biso   1.000  O
  O2       1.0000 0.15348  0.77875  0.65454  Biso   1.000  O
  O3       1.0000 0.34885  0.27998  0.84522  Biso   1.000  O
  O4       1.0000 0.15328  0.71767  0.84549  Biso   1.000  O
  O5       1.0000 0.65350  0.77887  0.34592  Biso   1.000  O
  O6       1.0000 0.84702  0.22149  0.34575  Biso   1.000  O
  O7       1.0000 0.65313  0.71960  0.15425  Biso   1.000  O
  O8       1.0000 0.84688  0.28138  0.15416  Biso   1.000  O
  O9       1.0000 0.32248  0.11772  0.63012  Biso   1.000  O
  O10      1.0000 0.17767  0.88031  0.62988  Biso   1.000  O
  O11      1.0000 0.32225  0.38119  0.86945  Biso   1.000  O
  O12      1.0000 0.17808  0.61627  0.87034  Biso   1.000  O
  O13      1.0000 0.67756  0.88041  0.37067  Biso   1.000  O
  O14      1.0000 0.82305  0.11995  0.37067  Biso   1.000  O
  O15      1.0000 0.67890  0.61835  0.12976  Biso   1.000  O
  O16      1.0000 0.82284  0.38295  0.12981  Biso   1.000  O
  O17      1.0000 0.66060  0.21508  0.34559  Biso   1.000  O
  O18      1.0000 0.83963  0.78380  0.34577  Biso   1.000  O
  O19      1.0000 0.66298  0.28559  0.15005  Biso   1.000  O
  O20      1.0000 0.83962  0.71249  0.15390  Biso   1.000  O
  O21      1.0000 0.33904  0.78379  0.65403  Biso   1.000  O
  O22      1.0000 0.16050  0.21451  0.65778  Biso   1.000  O
  O23      1.0000 0.33715  0.71381  0.85012  Biso   1.000  O
  O24      1.0000 0.16312  0.28564  0.84990  Biso   1.000  O
  O25      1.0000 0.64310  0.11252  0.32098  Biso   1.000  O
  O26      1.0000 0.85915  0.88563  0.31665  Biso   1.000  O
  O27      1.0000 0.64237  0.38676  0.18274  Biso   1.000  O
  O28      1.0000 0.85943  0.61079  0.18321  Biso   1.000  O
  O29      1.0000 0.35849  0.88559  0.68311  Biso   1.000  O
  O30      1.0000 0.14310  0.11176  0.67991  Biso   1.000  O
  O31      1.0000 0.35930  0.61295  0.81661  Biso   1.000  O
  O32      1.0000 0.14321  0.38723  0.81956  Biso   1.000  O
  O33      1.0000 0.17403  0.04288  0.86509  Biso   1.000  O
  O34      1.0000 0.32664  0.95494  0.86278  Biso   1.000  O
  O35      1.0000 0.17623  0.45572  0.63335  Biso   1.000  O
  O36      1.0000 0.32744  0.54312  0.63690  Biso   1.000  O
  O37      1.0000 0.82599  0.95699  0.13812  Biso   1.000  O
  O38      1.0000 0.67354  0.04331  0.13749  Biso   1.000  O
  O39      1.0000 0.82371  0.54368  0.36703  Biso   1.000  O
  O40      1.0000 0.67399  0.45593  0.36277  Biso   1.000  O
  O41      1.0000 0.14362  0.94356  0.82945  Biso   1.000  O
  O42      1.0000 0.35674  0.05388  0.82566  Biso   1.000  O
  O43      1.0000 0.14548  0.55466  0.67013  Biso   1.000  O
  O44      1.0000 0.35695  0.44381  0.67189  Biso   1.000  O
  O45      1.0000 0.85680  0.05584  0.17503  Biso   1.000  O
  O46      1.0000 0.64396  0.94366  0.17183  Biso   1.000  O
  O47      1.0000 0.85619  0.44515  0.32938  Biso   1.000  O
  O48      1.0000 0.64309  0.55465  0.32563  Biso   1.000  O
  O49      1.0000 0.25696  0.16543  0.83018  Biso   1.000  O
  O50      1.0000 0.24297  0.83233  0.83014  Biso   1.000  O
  O51      1.0000 0.25638  0.33262  0.67057  Biso   1.000  O
  O52      1.0000 0.24368  0.66584  0.67016  Biso   1.000  O
  O53      1.0000 0.74377  0.83277  0.17030  Biso   1.000  O
  O54      1.0000 0.75666  0.16602  0.17078  Biso   1.000  O
  O55      1.0000 0.74345  0.66603  0.32975  Biso   1.000  O
  O56      1.0000 0.75662  0.33328  0.32963  Biso   1.000  O
  H1       1.0000 0.30084  0.16545  0.87440  Biso   1.000  H
  H2       1.0000 0.19844  0.83199  0.87336  Biso   1.000  H
  H3       1.0000 0.30026  0.33188  0.62639  Biso   1.000  H
  H4       1.0000 0.19881  0.66611  0.62747  Biso   1.000  H
  H5       1.0000 0.69909  0.83244  0.12726  Biso   1.000  H
  H6       1.0000 0.80086  0.16610  0.12707  Biso   1.000  H
  H7       1.0000 0.69905  0.66663  0.37316  Biso   1.000  H
  H8       1.0000 0.80116  0.33247  0.37283  Biso   1.000  H
  O57      1.0000 0.24720  0.99872  0.67079  Biso   1.000  O
  O58      1.0000 0.24953  0.49935  0.82903  Biso   1.000  O
  O59      1.0000 0.74779  0.99934  0.33033  Biso   1.000  O
  O60      1.0000 0.75291  0.49960  0.17055  Biso   1.000  O
  H9       1.0000 0.20469  0.99754  0.62472  Biso   1.000  H
  H10      1.0000 0.20756  0.50047  0.87581  Biso   1.000  H
  H11      1.0000 0.70531  0.99818  0.37645  Biso   1.000  H
  H12      1.0000 0.79615  0.49847  0.12551  Biso   1.000  H
