data_image0
_cell_length_a       10.052
_cell_length_b       17.3341
_cell_length_c       11.3317
_cell_angle_alpha    90
_cell_angle_beta     108.652
_cell_angle_gamma    90

_symmetry_space_group_name_H-M    "P 1"
_symmetry_int_tables_number       1

loop_
  _symmetry_equiv_pos_as_xyz
  'x, y, z'

loop_
  _atom_site_label
  _atom_site_occupancy
  _atom_site_fract_x
  _atom_site_fract_y
  _atom_site_fract_z
  _atom_site_thermal_displace_type
  _atom_site_B_iso_or_equiv
  _atom_site_type_symbol
  Lu1      1.0000 0.99098  0.50603  0.31699  Biso   1.000  Lu
  Lu2      1.0000 0.00902  0.00603  0.18301  Biso   1.000  Lu
  Lu3      1.0000 0.00902  0.49397  0.68301  Biso   1.000  Lu
  Lu4      1.0000 0.99098  0.99397  0.81699  Biso   1.000  Lu
  O1       1.0000 0.14989  0.41640  0.27476  Biso   1.000  O
  O2       1.0000 0.85011  0.91640  0.22524  Biso   1.000  O
  O3       1.0000 0.85011  0.58361  0.72524  Biso   1.000  O
  O4       1.0000 0.14989  0.08361  0.77476  Biso   1.000  O
  O5       1.0000 0.77821  0.49999  0.35550  Biso   1.000  O
  O6       1.0000 0.22179  0.99999  0.14450  Biso   1.000  O
  O7       1.0000 0.22179  0.50001  0.64450  Biso   1.000  O
  O8       1.0000 0.77821  0.00001  0.85550  Biso   1.000  O
  O9       1.0000 0.79446  0.45487  0.54822  Biso   1.000  O
  O10      1.0000 0.20554  0.95487  0.95178  Biso   1.000  O
  O11      1.0000 0.20555  0.54513  0.45178  Biso   1.000  O
  O12      1.0000 0.79445  0.04513  0.04822  Biso   1.000  O
  O13      1.0000 0.95131  0.86464  0.85161  Biso   1.000  O
  O14      1.0000 0.04869  0.36464  0.64839  Biso   1.000  O
  O15      1.0000 0.04869  0.13536  0.14840  Biso   1.000  O
  O16      1.0000 0.95131  0.63536  0.35160  Biso   1.000  O
  N1       1.0000 0.77374  0.46363  0.09590  Biso   1.000  N
  N2       1.0000 0.22626  0.96363  0.40410  Biso   1.000  N
  N3       1.0000 0.22626  0.53637  0.90410  Biso   1.000  N
  N4       1.0000 0.77374  0.03637  0.59590  Biso   1.000  N
  O17      1.0000 0.79547  0.53522  0.12208  Biso   1.000  O
  O18      1.0000 0.20453  0.03522  0.37792  Biso   1.000  O
  O19      1.0000 0.20453  0.46478  0.87792  Biso   1.000  O
  O20      1.0000 0.79547  0.96478  0.62208  Biso   1.000  O
  O21      1.0000 0.98696  0.91245  0.04238  Biso   1.000  O
  O22      1.0000 0.01304  0.41245  0.45762  Biso   1.000  O
  O23      1.0000 0.01304  0.08755  0.95762  Biso   1.000  O
  O24      1.0000 0.98696  0.58755  0.54238  Biso   1.000  O
  O25      1.0000 0.86096  0.41619  0.17116  Biso   1.000  O
  O26      1.0000 0.13904  0.91619  0.32884  Biso   1.000  O
  O27      1.0000 0.13905  0.58381  0.82884  Biso   1.000  O
  O28      1.0000 0.86095  0.08381  0.67116  Biso   1.000  O
  O29      1.0000 0.08499  0.56081  0.17594  Biso   1.000  O
  O30      1.0000 0.91501  0.06081  0.32406  Biso   1.000  O
  O31      1.0000 0.91501  0.43919  0.82406  Biso   1.000  O
  O32      1.0000 0.08499  0.93919  0.67594  Biso   1.000  O
  C1       1.0000 0.97788  0.85600  0.96843  Biso   1.000  C
  C2       1.0000 0.02212  0.35600  0.53157  Biso   1.000  C
  C3       1.0000 0.02212  0.14400  0.03157  Biso   1.000  C
  C4       1.0000 0.97788  0.64400  0.46843  Biso   1.000  C
  C5       1.0000 0.57618  0.44695  0.38684  Biso   1.000  C
  C6       1.0000 0.42382  0.94695  0.11316  Biso   1.000  C
  C7       1.0000 0.42382  0.55305  0.61316  Biso   1.000  C
  C8       1.0000 0.57618  0.05305  0.88684  Biso   1.000  C
  C9       1.0000 0.49141  0.47158  0.26910  Biso   1.000  C
  C10      1.0000 0.50859  0.97158  0.23090  Biso   1.000  C
  C11      1.0000 0.50859  0.52842  0.73090  Biso   1.000  C
  C12      1.0000 0.49141  0.02842  0.76910  Biso   1.000  C
  H1       1.0000 0.53663  0.50173  0.20674  Biso   1.000  H
  H2       1.0000 0.46337  0.00173  0.29326  Biso   1.000  H
  H3       1.0000 0.46337  0.49826  0.79326  Biso   1.000  H
  H4       1.0000 0.53663  0.99826  0.70674  Biso   1.000  H
  C13      1.0000 0.51206  0.40765  0.46234  Biso   1.000  C
  C14      1.0000 0.48794  0.90765  0.03766  Biso   1.000  C
  C15      1.0000 0.48794  0.59235  0.53766  Biso   1.000  C
  C16      1.0000 0.51206  0.09235  0.96234  Biso   1.000  C
  H5       1.0000 0.57476  0.38819  0.55463  Biso   1.000  H
  H6       1.0000 0.42524  0.88819  0.94537  Biso   1.000  H
  H7       1.0000 0.42524  0.61181  0.44537  Biso   1.000  H
  H8       1.0000 0.57476  0.11181  0.05463  Biso   1.000  H
  C17      1.0000 0.34778  0.46034  0.23213  Biso   1.000  C
  C18      1.0000 0.65222  0.96034  0.26787  Biso   1.000  C
  C19      1.0000 0.65221  0.53966  0.76787  Biso   1.000  C
  C20      1.0000 0.34779  0.03966  0.73213  Biso   1.000  C
  H9       1.0000 0.27606  0.48085  0.14459  Biso   1.000  H
  H10      1.0000 0.72394  0.98085  0.35541  Biso   1.000  H
  H11      1.0000 0.72394  0.51915  0.85540  Biso   1.000  H
  H12      1.0000 0.27606  0.01915  0.64460  Biso   1.000  H
  N5       1.0000 0.28726  0.42433  0.30921  Biso   1.000  N
  N6       1.0000 0.71274  0.92433  0.19079  Biso   1.000  N
  N7       1.0000 0.71274  0.57567  0.69079  Biso   1.000  N
  N8       1.0000 0.28726  0.07567  0.80921  Biso   1.000  N
  C21      1.0000 0.36843  0.39615  0.42208  Biso   1.000  C
  C22      1.0000 0.63157  0.89615  0.07792  Biso   1.000  C
  C23      1.0000 0.63157  0.60385  0.57792  Biso   1.000  C
  C24      1.0000 0.36843  0.10385  0.92208  Biso   1.000  C
  H13      1.0000 0.30991  0.36793  0.47537  Biso   1.000  H
  H14      1.0000 0.69009  0.86793  0.02463  Biso   1.000  H
  H15      1.0000 0.69010  0.63207  0.52463  Biso   1.000  H
  H16      1.0000 0.30990  0.13207  0.97537  Biso   1.000  H
  O33      1.0000 0.67773  0.43972  0.00505  Biso   1.000  O
  O34      1.0000 0.32227  0.93972  0.49495  Biso   1.000  O
  O35      1.0000 0.32227  0.56028  0.99495  Biso   1.000  O
  O36      1.0000 0.67773  0.06028  0.50505  Biso   1.000  O
  C25      1.0000 0.10824  0.69387  0.19952  Biso   1.000  C
  C26      1.0000 0.89176  0.19387  0.30048  Biso   1.000  C
  C27      1.0000 0.89176  0.30613  0.80048  Biso   1.000  C
  C28      1.0000 0.10824  0.80613  0.69952  Biso   1.000  C
  H17      1.0000 0.16690  0.68105  0.29576  Biso   1.000  H
  H18      1.0000 0.83310  0.18105  0.20424  Biso   1.000  H
  H19      1.0000 0.83310  0.31896  0.70424  Biso   1.000  H
  H20      1.0000 0.16690  0.81896  0.79576  Biso   1.000  H
  C29      1.0000 0.00447  0.77678  0.02309  Biso   1.000  C
  C30      1.0000 0.99553  0.27678  0.47691  Biso   1.000  C
  C31      1.0000 0.99553  0.22322  0.97691  Biso   1.000  C
  C32      1.0000 0.00447  0.72322  0.52309  Biso   1.000  C
  C33      1.0000 0.72917  0.46816  0.43335  Biso   1.000  C
  C34      1.0000 0.27083  0.96816  0.06665  Biso   1.000  C
  C35      1.0000 0.27083  0.53184  0.56665  Biso   1.000  C
  C36      1.0000 0.72917  0.03184  0.93335  Biso   1.000  C
  C37      1.0000 0.95910  0.71083  0.94996  Biso   1.000  C
  C38      1.0000 0.04090  0.21083  0.55004  Biso   1.000  C
  C39      1.0000 0.04090  0.28917  0.05004  Biso   1.000  C
  C40      1.0000 0.95910  0.78917  0.44996  Biso   1.000  C
  H21      1.0000 0.90369  0.71502  0.85055  Biso   1.000  H
  H22      1.0000 0.09631  0.21502  0.64945  Biso   1.000  H
  H23      1.0000 0.09631  0.28498  0.14944  Biso   1.000  H
  H24      1.0000 0.90369  0.78498  0.35056  Biso   1.000  H
  C41      1.0000 0.08031  0.76709  0.14978  Biso   1.000  C
  C42      1.0000 0.91969  0.26709  0.35022  Biso   1.000  C
  C43      1.0000 0.91968  0.23291  0.85022  Biso   1.000  C
  C44      1.0000 0.08032  0.73291  0.64978  Biso   1.000  C
  H25      1.0000 0.11906  0.81655  0.21021  Biso   1.000  H
  H26      1.0000 0.88094  0.31655  0.28979  Biso   1.000  H
  H27      1.0000 0.88094  0.18345  0.78979  Biso   1.000  H
  H28      1.0000 0.11906  0.68345  0.71021  Biso   1.000  H
  N9       1.0000 0.05846  0.63060  0.12705  Biso   1.000  N
  N10      1.0000 0.94154  0.13060  0.37295  Biso   1.000  N
  N11      1.0000 0.94154  0.36940  0.87295  Biso   1.000  N
  N12      1.0000 0.05846  0.86940  0.62705  Biso   1.000  N
  C45      1.0000 0.98488  0.63837  0.00376  Biso   1.000  C
  C46      1.0000 0.01512  0.13837  0.49624  Biso   1.000  C
  C47      1.0000 0.01511  0.36163  0.99624  Biso   1.000  C
  C48      1.0000 0.98489  0.86163  0.50376  Biso   1.000  C
  H29      1.0000 0.95180  0.58505  0.95285  Biso   1.000  H
  H30      1.0000 0.04820  0.08505  0.54715  Biso   1.000  H
  H31      1.0000 0.04820  0.41495  0.04715  Biso   1.000  H
  H32      1.0000 0.95180  0.91495  0.45285  Biso   1.000  H
