data_image0
_cell_length_a       25.7824
_cell_length_b       25.7822
_cell_length_c       12.5592
_cell_angle_alpha    89.9967
_cell_angle_beta     90.0036
_cell_angle_gamma    120.028

_symmetry_space_group_name_H-M    "P 1"
_symmetry_int_tables_number       1

loop_
  _symmetry_equiv_pos_as_xyz
  'x, y, z'

loop_
  _atom_site_label
  _atom_site_occupancy
  _atom_site_fract_x
  _atom_site_fract_y
  _atom_site_fract_z
  _atom_site_thermal_displace_type
  _atom_site_B_iso_or_equiv
  _atom_site_type_symbol
  Ni1      1.0000 0.34904  0.38898  0.09085  Biso   1.000  Ni
  Ni2      1.0000 0.61095  0.95999  0.09085  Biso   1.000  Ni
  Ni3      1.0000 0.03993  0.65092  0.09086  Biso   1.000  Ni
  Ni4      1.0000 0.01571  0.72231  0.42418  Biso   1.000  Ni
  Ni5      1.0000 0.27762  0.29333  0.42418  Biso   1.000  Ni
  Ni6      1.0000 0.70659  0.98425  0.42420  Biso   1.000  Ni
  Ni7      1.0000 0.68238  0.05565  0.75751  Biso   1.000  Ni
  Ni8      1.0000 0.94429  0.62666  0.75751  Biso   1.000  Ni
  Ni9      1.0000 0.37326  0.31758  0.75753  Biso   1.000  Ni
  Ni10     1.0000 0.65096  0.61102  0.90915  Biso   1.000  Ni
  Ni11     1.0000 0.38905  0.04002  0.90915  Biso   1.000  Ni
  Ni12     1.0000 0.96008  0.34909  0.90914  Biso   1.000  Ni
  Ni13     1.0000 0.98429  0.27769  0.57582  Biso   1.000  Ni
  Ni14     1.0000 0.72238  0.70668  0.57582  Biso   1.000  Ni
  Ni15     1.0000 0.29341  0.01576  0.57580  Biso   1.000  Ni
  Ni16     1.0000 0.31763  0.94436  0.24248  Biso   1.000  Ni
  Ni17     1.0000 0.05572  0.37334  0.24248  Biso   1.000  Ni
  Ni18     1.0000 0.62674  0.68242  0.24247  Biso   1.000  Ni
  Ni19     1.0000 0.37324  0.31756  0.25752  Biso   1.000  Ni
  Ni20     1.0000 0.68240  0.05565  0.25750  Biso   1.000  Ni
  Ni21     1.0000 0.94429  0.62668  0.25750  Biso   1.000  Ni
  Ni22     1.0000 0.03991  0.65090  0.59085  Biso   1.000  Ni
  Ni23     1.0000 0.34906  0.38898  0.59083  Biso   1.000  Ni
  Ni24     1.0000 0.61095  0.96002  0.59083  Biso   1.000  Ni
  Ni25     1.0000 0.70657  0.98423  0.92418  Biso   1.000  Ni
  Ni26     1.0000 0.01573  0.72231  0.92417  Biso   1.000  Ni
  Ni27     1.0000 0.27762  0.29335  0.92417  Biso   1.000  Ni
  Ni28     1.0000 0.62676  0.68244  0.74249  Biso   1.000  Ni
  Ni29     1.0000 0.31761  0.94436  0.74250  Biso   1.000  Ni
  Ni30     1.0000 0.05572  0.37332  0.74250  Biso   1.000  Ni
  Ni31     1.0000 0.96010  0.34911  0.40915  Biso   1.000  Ni
  Ni32     1.0000 0.65094  0.61103  0.40916  Biso   1.000  Ni
  Ni33     1.0000 0.38905  0.03999  0.40917  Biso   1.000  Ni
  Ni34     1.0000 0.29343  0.01578  0.07582  Biso   1.000  Ni
  Ni35     1.0000 0.98427  0.27769  0.07583  Biso   1.000  Ni
  Ni36     1.0000 0.72239  0.70666  0.07583  Biso   1.000  Ni
  O1       1.0000 0.30618  0.36052  0.21718  Biso   1.000  O
  O2       1.0000 0.63937  0.94556  0.21719  Biso   1.000  O
  O3       1.0000 0.05434  0.69377  0.21721  Biso   1.000  O
  O4       1.0000 0.97285  0.69385  0.55052  Biso   1.000  O
  O5       1.0000 0.30604  0.27890  0.55053  Biso   1.000  O
  O6       1.0000 0.72100  0.02710  0.55054  Biso   1.000  O
  O7       1.0000 0.63951  0.02718  0.88385  Biso   1.000  O
  O8       1.0000 0.97270  0.61222  0.88386  Biso   1.000  O
  O9       1.0000 0.38767  0.36044  0.88388  Biso   1.000  O
  O10      1.0000 0.69383  0.63949  0.78282  Biso   1.000  O
  O11      1.0000 0.36063  0.05445  0.78281  Biso   1.000  O
  O12      1.0000 0.94566  0.30624  0.78279  Biso   1.000  O
  O13      1.0000 0.02715  0.30615  0.44948  Biso   1.000  O
  O14      1.0000 0.69396  0.72111  0.44947  Biso   1.000  O
  O15      1.0000 0.27899  0.97291  0.44945  Biso   1.000  O
  O16      1.0000 0.36049  0.97282  0.11615  Biso   1.000  O
  O17      1.0000 0.02731  0.38778  0.11613  Biso   1.000  O
  O18      1.0000 0.61233  0.63957  0.11612  Biso   1.000  O
  O19      1.0000 0.27844  0.36200  0.00384  Biso   1.000  O
  O20      1.0000 0.63789  0.91635  0.00387  Biso   1.000  O
  O21      1.0000 0.08357  0.72151  0.00385  Biso   1.000  O
  O22      1.0000 0.94511  0.69533  0.33718  Biso   1.000  O
  O23      1.0000 0.30456  0.24969  0.33720  Biso   1.000  O
  O24      1.0000 0.75023  0.05485  0.33719  Biso   1.000  O
  O25      1.0000 0.61178  0.02867  0.67051  Biso   1.000  O
  O26      1.0000 0.97124  0.58302  0.67054  Biso   1.000  O
  O27      1.0000 0.41690  0.38818  0.67052  Biso   1.000  O
  O28      1.0000 0.72156  0.63801  0.99616  Biso   1.000  O
  O29      1.0000 0.36211  0.08365  0.99613  Biso   1.000  O
  O30      1.0000 0.91643  0.27849  0.99615  Biso   1.000  O
  O31      1.0000 0.05488  0.30466  0.66282  Biso   1.000  O
  O32      1.0000 0.69544  0.75032  0.66280  Biso   1.000  O
  O33      1.0000 0.24977  0.94516  0.66281  Biso   1.000  O
  O34      1.0000 0.38822  0.97134  0.32949  Biso   1.000  O
  O35      1.0000 0.02878  0.41698  0.32946  Biso   1.000  O
  O36      1.0000 0.58310  0.61182  0.32948  Biso   1.000  O
  O37      1.0000 0.22852  0.29695  0.31599  Biso   1.000  O
  O38      1.0000 0.70294  0.93154  0.31602  Biso   1.000  O
  O39      1.0000 0.06845  0.77141  0.31600  Biso   1.000  O
  O40      1.0000 0.89520  0.63029  0.64933  Biso   1.000  O
  O41      1.0000 0.36961  0.26487  0.64935  Biso   1.000  O
  O42      1.0000 0.73511  0.10475  0.64934  Biso   1.000  O
  O43      1.0000 0.56186  0.96363  0.98267  Biso   1.000  O
  O44      1.0000 0.03628  0.59820  0.98269  Biso   1.000  O
  O45      1.0000 0.40179  0.43808  0.98268  Biso   1.000  O
  O46      1.0000 0.77148  0.70306  0.68401  Biso   1.000  O
  O47      1.0000 0.29706  0.06847  0.68398  Biso   1.000  O
  O48      1.0000 0.93154  0.22859  0.68399  Biso   1.000  O
  O49      1.0000 0.10481  0.36971  0.35067  Biso   1.000  O
  O50      1.0000 0.63039  0.73513  0.35065  Biso   1.000  O
  O51      1.0000 0.26488  0.89526  0.35066  Biso   1.000  O
  O52      1.0000 0.43814  0.03639  0.01734  Biso   1.000  O
  O53      1.0000 0.96373  0.40181  0.01732  Biso   1.000  O
  O54      1.0000 0.59822  0.56193  0.01733  Biso   1.000  O
  O55      1.0000 0.05486  0.30467  0.16285  Biso   1.000  O
  O56      1.0000 0.69544  0.75029  0.16283  Biso   1.000  O
  O57      1.0000 0.24979  0.94518  0.16284  Biso   1.000  O
  O58      1.0000 0.72153  0.63801  0.49619  Biso   1.000  O
  O59      1.0000 0.36211  0.08363  0.49617  Biso   1.000  O
  O60      1.0000 0.91645  0.27852  0.49618  Biso   1.000  O
  O61      1.0000 0.38820  0.97135  0.82952  Biso   1.000  O
  O62      1.0000 0.02878  0.41696  0.82950  Biso   1.000  O
  O63      1.0000 0.58313  0.61185  0.82951  Biso   1.000  O
  O64      1.0000 0.94514  0.69532  0.83715  Biso   1.000  O
  O65      1.0000 0.30455  0.24971  0.83716  Biso   1.000  O
  O66      1.0000 0.75021  0.05482  0.83716  Biso   1.000  O
  O67      1.0000 0.27847  0.36200  0.50381  Biso   1.000  O
  O68      1.0000 0.63789  0.91638  0.50383  Biso   1.000  O
  O69      1.0000 0.08355  0.72149  0.50382  Biso   1.000  O
  O70      1.0000 0.61180  0.02867  0.17048  Biso   1.000  O
  O71      1.0000 0.97123  0.58304  0.17051  Biso   1.000  O
  O72      1.0000 0.41688  0.38816  0.17049  Biso   1.000  O
  O73      1.0000 0.10479  0.36968  0.85068  Biso   1.000  O
  O74      1.0000 0.63042  0.73515  0.85067  Biso   1.000  O
  O75      1.0000 0.26487  0.89528  0.85068  Biso   1.000  O
  O76      1.0000 0.77146  0.70302  0.18402  Biso   1.000  O
  O77      1.0000 0.29709  0.06848  0.18400  Biso   1.000  O
  O78      1.0000 0.93153  0.22862  0.18401  Biso   1.000  O
  O79      1.0000 0.43813  0.03637  0.51736  Biso   1.000  O
  O80      1.0000 0.96377  0.40182  0.51733  Biso   1.000  O
  O81      1.0000 0.59821  0.56195  0.51735  Biso   1.000  O
  O82      1.0000 0.89521  0.63031  0.14931  Biso   1.000  O
  O83      1.0000 0.36958  0.26486  0.14933  Biso   1.000  O
  O84      1.0000 0.73513  0.10473  0.14931  Biso   1.000  O
  O85      1.0000 0.22854  0.29698  0.81598  Biso   1.000  O
  O86      1.0000 0.70290  0.93152  0.81599  Biso   1.000  O
  O87      1.0000 0.06846  0.77139  0.81599  Biso   1.000  O
  O88      1.0000 0.56187  0.96366  0.48265  Biso   1.000  O
  O89      1.0000 0.03626  0.59820  0.48267  Biso   1.000  O
  O90      1.0000 0.40179  0.43806  0.48265  Biso   1.000  O
  O91      1.0000 0.02712  0.30614  0.94949  Biso   1.000  O
  O92      1.0000 0.69397  0.72109  0.94949  Biso   1.000  O
  O93      1.0000 0.27902  0.97294  0.94947  Biso   1.000  O
  O94      1.0000 0.69379  0.63949  0.28283  Biso   1.000  O
  O95      1.0000 0.36064  0.05442  0.28282  Biso   1.000  O
  O96      1.0000 0.94569  0.30628  0.28280  Biso   1.000  O
  O97      1.0000 0.36046  0.97282  0.61616  Biso   1.000  O
  O98      1.0000 0.02731  0.38775  0.61616  Biso   1.000  O
  O99      1.0000 0.61236  0.63960  0.61614  Biso   1.000  O
  O100     1.0000 0.97288  0.69385  0.05051  Biso   1.000  O
  O101     1.0000 0.30603  0.27892  0.05051  Biso   1.000  O
  O102     1.0000 0.72098  0.02707  0.05053  Biso   1.000  O
  O103     1.0000 0.30621  0.36053  0.71717  Biso   1.000  O
  O104     1.0000 0.63935  0.94558  0.71718  Biso   1.000  O
  O105     1.0000 0.05432  0.69374  0.71720  Biso   1.000  O
  O106     1.0000 0.63954  0.02719  0.38384  Biso   1.000  O
  O107     1.0000 0.97271  0.61225  0.38384  Biso   1.000  O
  O108     1.0000 0.38765  0.36040  0.38386  Biso   1.000  O
  C1       1.0000 0.24932  0.32763  0.23041  Biso   1.000  C
  C2       1.0000 0.67227  0.92164  0.23043  Biso   1.000  C
  C3       1.0000 0.07832  0.75062  0.23042  Biso   1.000  C
  C4       1.0000 0.91599  0.66097  0.56375  Biso   1.000  C
  C5       1.0000 0.33894  0.25497  0.56376  Biso   1.000  C
  C6       1.0000 0.74498  0.08396  0.56376  Biso   1.000  C
  C7       1.0000 0.58266  0.99431  0.89709  Biso   1.000  C
  C8       1.0000 0.00561  0.58830  0.89710  Biso   1.000  C
  C9       1.0000 0.41165  0.41729  0.89710  Biso   1.000  C
  C10      1.0000 0.75068  0.67237  0.76958  Biso   1.000  C
  C11      1.0000 0.32773  0.07837  0.76957  Biso   1.000  C
  C12      1.0000 0.92167  0.24938  0.76957  Biso   1.000  C
  C13      1.0000 0.08401  0.33903  0.43625  Biso   1.000  C
  C14      1.0000 0.66106  0.74503  0.43624  Biso   1.000  C
  C15      1.0000 0.25501  0.91605  0.43624  Biso   1.000  C
  C16      1.0000 0.41735  0.00571  0.10292  Biso   1.000  C
  C17      1.0000 0.99441  0.41171  0.10291  Biso   1.000  C
  C18      1.0000 0.58835  0.58272  0.10290  Biso   1.000  C
  C19      1.0000 0.22484  0.34939  0.04665  Biso   1.000  C
  C20      1.0000 0.65053  0.87539  0.04667  Biso   1.000  C
  C21      1.0000 0.12457  0.77514  0.04665  Biso   1.000  C
  C22      1.0000 0.89151  0.68272  0.37998  Biso   1.000  C
  C23      1.0000 0.31720  0.20873  0.38001  Biso   1.000  C
  C24      1.0000 0.79123  0.10847  0.37999  Biso   1.000  C
  C25      1.0000 0.55818  0.01607  0.71332  Biso   1.000  C
  C26      1.0000 0.98389  0.54207  0.71334  Biso   1.000  C
  C27      1.0000 0.45790  0.44180  0.71333  Biso   1.000  C
  C28      1.0000 0.77516  0.65062  0.95335  Biso   1.000  C
  C29      1.0000 0.34946  0.12461  0.95333  Biso   1.000  C
  C30      1.0000 0.87543  0.22487  0.95335  Biso   1.000  C
  C31      1.0000 0.10849  0.31727  0.62001  Biso   1.000  C
  C32      1.0000 0.68279  0.79128  0.62000  Biso   1.000  C
  C33      1.0000 0.20877  0.89154  0.62001  Biso   1.000  C
  C34      1.0000 0.44183  0.98396  0.28669  Biso   1.000  C
  C35      1.0000 0.01615  0.45795  0.28666  Biso   1.000  C
  C36      1.0000 0.54210  0.55820  0.28667  Biso   1.000  C
  C37      1.0000 0.20694  0.32808  0.15228  Biso   1.000  C
  C38      1.0000 0.67186  0.87884  0.15229  Biso   1.000  C
  C39      1.0000 0.12114  0.79302  0.15227  Biso   1.000  C
  C40      1.0000 0.87361  0.66142  0.48562  Biso   1.000  C
  C41      1.0000 0.33853  0.21217  0.48562  Biso   1.000  C
  C42      1.0000 0.78781  0.12636  0.48561  Biso   1.000  C
  C43      1.0000 0.54028  0.99477  0.81895  Biso   1.000  C
  C44      1.0000 0.00521  0.54550  0.81896  Biso   1.000  C
  C45      1.0000 0.45448  0.45969  0.81895  Biso   1.000  C
  C46      1.0000 0.79306  0.67192  0.84772  Biso   1.000  C
  C47      1.0000 0.32813  0.12117  0.84771  Biso   1.000  C
  C48      1.0000 0.87885  0.20698  0.84772  Biso   1.000  C
  C49      1.0000 0.12639  0.33858  0.51438  Biso   1.000  C
  C50      1.0000 0.66146  0.78783  0.51438  Biso   1.000  C
  C51      1.0000 0.21219  0.87365  0.51439  Biso   1.000  C
  C52      1.0000 0.45973  0.00526  0.18106  Biso   1.000  C
  C53      1.0000 0.99482  0.45451  0.18104  Biso   1.000  C
  C54      1.0000 0.54552  0.54032  0.18105  Biso   1.000  C
  C55      1.0000 0.14894  0.31138  0.18625  Biso   1.000  C
  C56      1.0000 0.68865  0.83761  0.18624  Biso   1.000  C
  C57      1.0000 0.16242  0.85105  0.18624  Biso   1.000  C
  C58      1.0000 0.81562  0.64473  0.51960  Biso   1.000  C
  C59      1.0000 0.35531  0.17094  0.51958  Biso   1.000  C
  C60      1.0000 0.82908  0.18439  0.51958  Biso   1.000  C
  C61      1.0000 0.48229  0.97807  0.85293  Biso   1.000  C
  C62      1.0000 0.02200  0.50428  0.85291  Biso   1.000  C
  C63      1.0000 0.49575  0.51771  0.85291  Biso   1.000  C
  C64      1.0000 0.85106  0.68862  0.81374  Biso   1.000  C
  C65      1.0000 0.31135  0.16240  0.81376  Biso   1.000  C
  C66      1.0000 0.83758  0.14896  0.81376  Biso   1.000  C
  C67      1.0000 0.18438  0.35528  0.48040  Biso   1.000  C
  C68      1.0000 0.64468  0.82906  0.48042  Biso   1.000  C
  C69      1.0000 0.17092  0.81563  0.48042  Biso   1.000  C
  C70      1.0000 0.51772  0.02196  0.14708  Biso   1.000  C
  C71      1.0000 0.97804  0.49574  0.14709  Biso   1.000  C
  C72      1.0000 0.50425  0.48229  0.14709  Biso   1.000  C
  H1       1.0000 0.13533  0.29496  0.26681  Biso   1.000  H
  H2       1.0000 0.70509  0.84045  0.26679  Biso   1.000  H
  H3       1.0000 0.15959  0.86465  0.26679  Biso   1.000  H
  H4       1.0000 0.80200  0.62832  0.60016  Biso   1.000  H
  H5       1.0000 0.37175  0.17378  0.60012  Biso   1.000  H
  H6       1.0000 0.82625  0.19798  0.60013  Biso   1.000  H
  H7       1.0000 0.46867  0.96166  0.93350  Biso   1.000  H
  H8       1.0000 0.03843  0.50712  0.93346  Biso   1.000  H
  H9       1.0000 0.49293  0.53131  0.93347  Biso   1.000  H
  H10      1.0000 0.86468  0.70503  0.73319  Biso   1.000  H
  H11      1.0000 0.29491  0.15956  0.73321  Biso   1.000  H
  H12      1.0000 0.84041  0.13536  0.73321  Biso   1.000  H
  H13      1.0000 0.19800  0.37169  0.39985  Biso   1.000  H
  H14      1.0000 0.62824  0.82622  0.39987  Biso   1.000  H
  H15      1.0000 0.17374  0.80203  0.39987  Biso   1.000  H
  H16      1.0000 0.53134  0.03838  0.06652  Biso   1.000  H
  H17      1.0000 0.96160  0.49290  0.06654  Biso   1.000  H
  H18      1.0000 0.50707  0.46870  0.06653  Biso   1.000  H
  C73      1.0000 0.10845  0.31723  0.12004  Biso   1.000  C
  C74      1.0000 0.68284  0.79128  0.12002  Biso   1.000  C
  C75      1.0000 0.20877  0.89158  0.12003  Biso   1.000  C
  C76      1.0000 0.77512  0.65058  0.45337  Biso   1.000  C
  C77      1.0000 0.34951  0.12462  0.45335  Biso   1.000  C
  C78      1.0000 0.87543  0.22492  0.45336  Biso   1.000  C
  C79      1.0000 0.44179  0.98392  0.78671  Biso   1.000  C
  C80      1.0000 0.01619  0.45795  0.78668  Biso   1.000  C
  C81      1.0000 0.54210  0.55824  0.78670  Biso   1.000  C
  C82      1.0000 0.89155  0.68276  0.87997  Biso   1.000  C
  C83      1.0000 0.31716  0.20872  0.87998  Biso   1.000  C
  C84      1.0000 0.79124  0.10843  0.87997  Biso   1.000  C
  C85      1.0000 0.22488  0.34943  0.54663  Biso   1.000  C
  C86      1.0000 0.65048  0.87539  0.54665  Biso   1.000  C
  C87      1.0000 0.12457  0.77510  0.54664  Biso   1.000  C
  C88      1.0000 0.55822  0.01610  0.21330  Biso   1.000  C
  C89      1.0000 0.98384  0.54206  0.21332  Biso   1.000  C
  C90      1.0000 0.45790  0.44176  0.21330  Biso   1.000  C
  C91      1.0000 0.12635  0.33853  0.01440  Biso   1.000  C
  C92      1.0000 0.66152  0.78785  0.01439  Biso   1.000  C
  C93      1.0000 0.21218  0.87370  0.01440  Biso   1.000  C
  C94      1.0000 0.79302  0.67187  0.34773  Biso   1.000  C
  C95      1.0000 0.32819  0.12118  0.34772  Biso   1.000  C
  C96      1.0000 0.87884  0.20703  0.34773  Biso   1.000  C
  C97      1.0000 0.45969  0.00521  0.68107  Biso   1.000  C
  C98      1.0000 0.99488  0.45452  0.68105  Biso   1.000  C
  C99      1.0000 0.54551  0.54036  0.68107  Biso   1.000  C
  C100     1.0000 0.87365  0.66147  0.98560  Biso   1.000  C
  C101     1.0000 0.33847  0.21216  0.98561  Biso   1.000  C
  C102     1.0000 0.78782  0.12631  0.98560  Biso   1.000  C
  C103     1.0000 0.20698  0.32814  0.65226  Biso   1.000  C
  C104     1.0000 0.67180  0.87882  0.65227  Biso   1.000  C
  C105     1.0000 0.12115  0.79298  0.65226  Biso   1.000  C
  C106     1.0000 0.54032  0.99482  0.31894  Biso   1.000  C
  C107     1.0000 0.00516  0.54550  0.31894  Biso   1.000  C
  C108     1.0000 0.45449  0.45965  0.31893  Biso   1.000  C
  C109     1.0000 0.18434  0.35522  0.98042  Biso   1.000  C
  C110     1.0000 0.64475  0.82908  0.98044  Biso   1.000  C
  C111     1.0000 0.17090  0.81568  0.98042  Biso   1.000  C
  C112     1.0000 0.85101  0.68855  0.31375  Biso   1.000  C
  C113     1.0000 0.31142  0.16242  0.31377  Biso   1.000  C
  C114     1.0000 0.83756  0.14901  0.31376  Biso   1.000  C
  C115     1.0000 0.51768  0.02190  0.64709  Biso   1.000  C
  C116     1.0000 0.97811  0.49576  0.64709  Biso   1.000  C
  C117     1.0000 0.50423  0.48234  0.64710  Biso   1.000  C
  C118     1.0000 0.81567  0.64479  0.01959  Biso   1.000  C
  C119     1.0000 0.35524  0.17093  0.01956  Biso   1.000  C
  C120     1.0000 0.82910  0.18433  0.01957  Biso   1.000  C
  C121     1.0000 0.14899  0.31145  0.68624  Biso   1.000  C
  C122     1.0000 0.68857  0.83759  0.68623  Biso   1.000  C
  C123     1.0000 0.16243  0.85100  0.68624  Biso   1.000  C
  C124     1.0000 0.48233  0.97813  0.35293  Biso   1.000  C
  C125     1.0000 0.02193  0.50427  0.35290  Biso   1.000  C
  C126     1.0000 0.49577  0.51766  0.35290  Biso   1.000  C
  H19      1.0000 0.19795  0.37162  0.89985  Biso   1.000  H
  H20      1.0000 0.62833  0.82625  0.89988  Biso   1.000  H
  H21      1.0000 0.17372  0.80209  0.89986  Biso   1.000  H
  H22      1.0000 0.86461  0.70495  0.23318  Biso   1.000  H
  H23      1.0000 0.29500  0.15959  0.23321  Biso   1.000  H
  H24      1.0000 0.84038  0.13542  0.23320  Biso   1.000  H
  H25      1.0000 0.53129  0.03831  0.56652  Biso   1.000  H
  H26      1.0000 0.96170  0.49293  0.56653  Biso   1.000  H
  H27      1.0000 0.50705  0.46875  0.56654  Biso   1.000  H
  H28      1.0000 0.80206  0.62839  0.10016  Biso   1.000  H
  H29      1.0000 0.37167  0.17376  0.10012  Biso   1.000  H
  H30      1.0000 0.82627  0.19792  0.10013  Biso   1.000  H
  H31      1.0000 0.13539  0.29505  0.76681  Biso   1.000  H
  H32      1.0000 0.70498  0.84041  0.76680  Biso   1.000  H
  H33      1.0000 0.15962  0.86459  0.76680  Biso   1.000  H
  H34      1.0000 0.46873  0.96174  0.43350  Biso   1.000  H
  H35      1.0000 0.03836  0.50710  0.43345  Biso   1.000  H
  H36      1.0000 0.49295  0.53126  0.43346  Biso   1.000  H
  C127     1.0000 0.08398  0.33900  0.93626  Biso   1.000  C
  C128     1.0000 0.66109  0.74503  0.93626  Biso   1.000  C
  C129     1.0000 0.25502  0.91608  0.93626  Biso   1.000  C
  C130     1.0000 0.75065  0.67234  0.26960  Biso   1.000  C
  C131     1.0000 0.32776  0.07837  0.26959  Biso   1.000  C
  C132     1.0000 0.92168  0.24942  0.26959  Biso   1.000  C
  C133     1.0000 0.41732  0.00569  0.60294  Biso   1.000  C
  C134     1.0000 0.99443  0.41170  0.60292  Biso   1.000  C
  C135     1.0000 0.58835  0.58275  0.60292  Biso   1.000  C
  C136     1.0000 0.91602  0.66099  0.06374  Biso   1.000  C
  C137     1.0000 0.33891  0.25497  0.06374  Biso   1.000  C
  C138     1.0000 0.74498  0.08392  0.06374  Biso   1.000  C
  C139     1.0000 0.24935  0.32766  0.73040  Biso   1.000  C
  C140     1.0000 0.67223  0.92163  0.73041  Biso   1.000  C
  C141     1.0000 0.07832  0.75059  0.73041  Biso   1.000  C
  C142     1.0000 0.58269  0.99433  0.39707  Biso   1.000  C
  C143     1.0000 0.00559  0.58831  0.39708  Biso   1.000  C
  C144     1.0000 0.41165  0.41726  0.39707  Biso   1.000  C
