data_image0
_cell_length_a       26.0903
_cell_length_b       26.0913
_cell_length_c       6.95499
_cell_angle_alpha    89.9959
_cell_angle_beta     90.0097
_cell_angle_gamma    119.97

_symmetry_space_group_name_H-M    "P 1"
_symmetry_int_tables_number       1

loop_
  _symmetry_equiv_pos_as_xyz
  'x, y, z'

loop_
  _atom_site_label
  _atom_site_occupancy
  _atom_site_fract_x
  _atom_site_fract_y
  _atom_site_fract_z
  _atom_site_thermal_displace_type
  _atom_site_B_iso_or_equiv
  _atom_site_type_symbol
  Mg1      1.0000 0.30608  0.28601  0.80592  Biso   1.000  Mg
  Mg2      1.0000 0.71414  0.02009  0.80593  Biso   1.000  Mg
  Mg3      1.0000 0.98000  0.69407  0.80587  Biso   1.000  Mg
  Mg4      1.0000 0.97275  0.61935  0.13925  Biso   1.000  Mg
  Mg5      1.0000 0.38080  0.35342  0.13927  Biso   1.000  Mg
  Mg6      1.0000 0.64667  0.02740  0.13920  Biso   1.000  Mg
  Mg7      1.0000 0.63942  0.95268  0.47259  Biso   1.000  Mg
  Mg8      1.0000 0.04747  0.68676  0.47260  Biso   1.000  Mg
  Mg9      1.0000 0.31333  0.36074  0.47254  Biso   1.000  Mg
  Mg10     1.0000 0.69391  0.71399  0.19413  Biso   1.000  Mg
  Mg11     1.0000 0.28586  0.97991  0.19412  Biso   1.000  Mg
  Mg12     1.0000 0.02000  0.30593  0.19418  Biso   1.000  Mg
  Mg13     1.0000 0.02725  0.38065  0.86080  Biso   1.000  Mg
  Mg14     1.0000 0.61919  0.64658  0.86078  Biso   1.000  Mg
  Mg15     1.0000 0.35333  0.97259  0.86085  Biso   1.000  Mg
  Mg16     1.0000 0.36058  0.04732  0.52747  Biso   1.000  Mg
  Mg17     1.0000 0.95253  0.31324  0.52745  Biso   1.000  Mg
  Mg18     1.0000 0.68667  0.63926  0.52752  Biso   1.000  Mg
  O1       1.0000 0.33140  0.29796  0.36643  Biso   1.000  O
  O2       1.0000 0.70215  0.03345  0.36645  Biso   1.000  O
  O3       1.0000 0.96665  0.66875  0.36647  Biso   1.000  O
  O4       1.0000 0.99807  0.63129  0.69977  Biso   1.000  O
  O5       1.0000 0.36882  0.36679  0.69979  Biso   1.000  O
  O6       1.0000 0.63332  0.00208  0.69981  Biso   1.000  O
  O7       1.0000 0.66473  0.96463  0.03310  Biso   1.000  O
  O8       1.0000 0.03549  0.70012  0.03312  Biso   1.000  O
  O9       1.0000 0.29999  0.33542  0.03314  Biso   1.000  O
  O10      1.0000 0.66858  0.70203  0.63359  Biso   1.000  O
  O11      1.0000 0.29785  0.96653  0.63357  Biso   1.000  O
  O12      1.0000 0.03335  0.33126  0.63355  Biso   1.000  O
  O13      1.0000 0.00191  0.36870  0.30026  Biso   1.000  O
  O14      1.0000 0.63119  0.63320  0.30024  Biso   1.000  O
  O15      1.0000 0.36669  0.99793  0.30022  Biso   1.000  O
  O16      1.0000 0.33525  0.03536  0.96692  Biso   1.000  O
  O17      1.0000 0.96452  0.29987  0.96691  Biso   1.000  O
  O18      1.0000 0.70002  0.66459  0.96688  Biso   1.000  O
  O19      1.0000 0.31184  0.05914  0.32427  Biso   1.000  O
  O20      1.0000 0.94078  0.25273  0.32431  Biso   1.000  O
  O21      1.0000 0.74716  0.68794  0.32431  Biso   1.000  O
  O22      1.0000 0.97851  0.39248  0.65761  Biso   1.000  O
  O23      1.0000 0.60744  0.58606  0.65764  Biso   1.000  O
  O24      1.0000 0.41382  0.02127  0.65765  Biso   1.000  O
  O25      1.0000 0.64517  0.72581  0.99094  Biso   1.000  O
  O26      1.0000 0.27411  0.91939  0.99098  Biso   1.000  O
  O27      1.0000 0.08049  0.35461  0.99098  Biso   1.000  O
  O28      1.0000 0.68816  0.94086  0.67577  Biso   1.000  O
  O29      1.0000 0.05922  0.74727  0.67574  Biso   1.000  O
  O30      1.0000 0.25284  0.31206  0.67573  Biso   1.000  O
  O31      1.0000 0.02149  0.60752  0.34244  Biso   1.000  O
  O32      1.0000 0.39255  0.41394  0.34241  Biso   1.000  O
  O33      1.0000 0.58618  0.97873  0.34240  Biso   1.000  O
  O34      1.0000 0.35482  0.27419  0.00910  Biso   1.000  O
  O35      1.0000 0.72589  0.08060  0.00907  Biso   1.000  O
  O36      1.0000 0.91951  0.64539  0.00906  Biso   1.000  O
  O37      1.0000 0.30344  0.22941  0.59693  Biso   1.000  O
  O38      1.0000 0.77073  0.07401  0.59693  Biso   1.000  O
  O39      1.0000 0.92606  0.69676  0.59688  Biso   1.000  O
  O40      1.0000 0.97010  0.56274  0.93027  Biso   1.000  O
  O41      1.0000 0.43739  0.40735  0.93027  Biso   1.000  O
  O42      1.0000 0.59273  0.03010  0.93022  Biso   1.000  O
  O43      1.0000 0.63677  0.89608  0.26361  Biso   1.000  O
  O44      1.0000 0.10406  0.74068  0.26360  Biso   1.000  O
  O45      1.0000 0.25939  0.36343  0.26355  Biso   1.000  O
  O46      1.0000 0.69656  0.77059  0.40311  Biso   1.000  O
  O47      1.0000 0.22927  0.92598  0.40312  Biso   1.000  O
  O48      1.0000 0.07394  0.30323  0.40317  Biso   1.000  O
  O49      1.0000 0.02990  0.43726  0.06979  Biso   1.000  O
  O50      1.0000 0.56260  0.59265  0.06979  Biso   1.000  O
  O51      1.0000 0.40727  0.96990  0.06984  Biso   1.000  O
  O52      1.0000 0.36323  0.10392  0.73646  Biso   1.000  O
  O53      1.0000 0.89594  0.25932  0.73646  Biso   1.000  O
  O54      1.0000 0.74060  0.63656  0.73651  Biso   1.000  O
  C1       1.0000 0.32061  0.24641  0.42551  Biso   1.000  C
  C2       1.0000 0.75370  0.07420  0.42553  Biso   1.000  C
  C3       1.0000 0.92589  0.67956  0.42550  Biso   1.000  C
  C4       1.0000 0.98727  0.57974  0.75885  Biso   1.000  C
  C5       1.0000 0.42036  0.40753  0.75887  Biso   1.000  C
  C6       1.0000 0.59256  0.01289  0.75884  Biso   1.000  C
  C7       1.0000 0.65394  0.91308  0.09218  Biso   1.000  C
  C8       1.0000 0.08703  0.74086  0.09220  Biso   1.000  C
  C9       1.0000 0.25922  0.34622  0.09217  Biso   1.000  C
  C10      1.0000 0.67939  0.75359  0.57453  Biso   1.000  C
  C11      1.0000 0.24630  0.92580  0.57452  Biso   1.000  C
  C12      1.0000 0.07411  0.32044  0.57454  Biso   1.000  C
  C13      1.0000 0.01272  0.42025  0.24120  Biso   1.000  C
  C14      1.0000 0.57964  0.59247  0.24118  Biso   1.000  C
  C15      1.0000 0.40744  0.98711  0.24121  Biso   1.000  C
  C16      1.0000 0.34606  0.08692  0.90787  Biso   1.000  C
  C17      1.0000 0.91297  0.25914  0.90785  Biso   1.000  C
  C18      1.0000 0.74078  0.65378  0.90788  Biso   1.000  C
  C19      1.0000 0.32242  0.11081  0.24318  Biso   1.000  C
  C20      1.0000 0.88915  0.21163  0.24319  Biso   1.000  C
  C21      1.0000 0.78831  0.67746  0.24321  Biso   1.000  C
  C22      1.0000 0.98908  0.44414  0.57651  Biso   1.000  C
  C23      1.0000 0.55581  0.54496  0.57652  Biso   1.000  C
  C24      1.0000 0.45498  0.01079  0.57655  Biso   1.000  C
  C25      1.0000 0.65575  0.77747  0.90984  Biso   1.000  C
  C26      1.0000 0.22248  0.87829  0.90986  Biso   1.000  C
  C27      1.0000 0.12164  0.34412  0.90988  Biso   1.000  C
  C28      1.0000 0.67758  0.88919  0.75688  Biso   1.000  C
  C29      1.0000 0.11085  0.78837  0.75687  Biso   1.000  C
  C30      1.0000 0.21169  0.32254  0.75684  Biso   1.000  C
  C31      1.0000 0.01091  0.55586  0.42354  Biso   1.000  C
  C32      1.0000 0.44419  0.45504  0.42353  Biso   1.000  C
  C33      1.0000 0.54502  0.98921  0.42351  Biso   1.000  C
  C34      1.0000 0.34425  0.22252  0.09020  Biso   1.000  C
  C35      1.0000 0.77752  0.12171  0.09019  Biso   1.000  C
  C36      1.0000 0.87835  0.65588  0.09017  Biso   1.000  C
  C37      1.0000 0.32882  0.20752  0.28818  Biso   1.000  C
  C38      1.0000 0.79253  0.12129  0.28820  Biso   1.000  C
  C39      1.0000 0.87876  0.67128  0.28817  Biso   1.000  C
  C40      1.0000 0.99548  0.54086  0.62152  Biso   1.000  C
  C41      1.0000 0.45919  0.45462  0.62154  Biso   1.000  C
  C42      1.0000 0.54543  0.00462  0.62151  Biso   1.000  C
  C43      1.0000 0.66215  0.87419  0.95485  Biso   1.000  C
  C44      1.0000 0.12586  0.78796  0.95488  Biso   1.000  C
  C45      1.0000 0.21209  0.33795  0.95484  Biso   1.000  C
  C46      1.0000 0.67118  0.79247  0.71187  Biso   1.000  C
  C47      1.0000 0.20747  0.87871  0.71185  Biso   1.000  C
  C48      1.0000 0.12124  0.32871  0.71188  Biso   1.000  C
  C49      1.0000 0.00452  0.45914  0.37854  Biso   1.000  C
  C50      1.0000 0.54080  0.54537  0.37852  Biso   1.000  C
  C51      1.0000 0.45457  0.99538  0.37855  Biso   1.000  C
  C52      1.0000 0.33785  0.12581  0.04520  Biso   1.000  C
  C53      1.0000 0.87414  0.21204  0.04518  Biso   1.000  C
  C54      1.0000 0.78790  0.66205  0.04521  Biso   1.000  C
  C55      1.0000 0.31851  0.15275  0.35834  Biso   1.000  C
  C56      1.0000 0.84726  0.16579  0.35837  Biso   1.000  C
  C57      1.0000 0.83420  0.68146  0.35837  Biso   1.000  C
  C58      1.0000 0.98518  0.48608  0.69168  Biso   1.000  C
  C59      1.0000 0.51393  0.49912  0.69171  Biso   1.000  C
  C60      1.0000 0.50087  0.01479  0.69171  Biso   1.000  C
  C61      1.0000 0.65184  0.81941  0.02501  Biso   1.000  C
  C62      1.0000 0.18059  0.83246  0.02505  Biso   1.000  C
  C63      1.0000 0.16753  0.34812  0.02504  Biso   1.000  C
  C64      1.0000 0.68149  0.84725  0.64172  Biso   1.000  C
  C65      1.0000 0.15273  0.83421  0.64168  Biso   1.000  C
  C66      1.0000 0.16579  0.31854  0.64168  Biso   1.000  C
  C67      1.0000 0.01482  0.51392  0.30838  Biso   1.000  C
  C68      1.0000 0.48607  0.50088  0.30835  Biso   1.000  C
  C69      1.0000 0.49913  0.98521  0.30835  Biso   1.000  C
  C70      1.0000 0.34816  0.18059  0.97504  Biso   1.000  C
  C71      1.0000 0.81940  0.16754  0.97501  Biso   1.000  C
  C72      1.0000 0.83246  0.65187  0.97501  Biso   1.000  C
  H1       1.0000 0.30676  0.14232  0.50898  Biso   1.000  H
  H2       1.0000 0.85771  0.16450  0.50905  Biso   1.000  H
  H3       1.0000 0.83548  0.69317  0.50905  Biso   1.000  H
  H4       1.0000 0.97342  0.47565  0.84232  Biso   1.000  H
  H5       1.0000 0.52438  0.49784  0.84238  Biso   1.000  H
  H6       1.0000 0.50215  0.02650  0.84238  Biso   1.000  H
  H7       1.0000 0.64009  0.80898  0.17565  Biso   1.000  H
  H8       1.0000 0.19104  0.83117  0.17572  Biso   1.000  H
  H9       1.0000 0.16881  0.35983  0.17571  Biso   1.000  H
  H10      1.0000 0.69325  0.85769  0.49108  Biso   1.000  H
  H11      1.0000 0.14228  0.83550  0.49102  Biso   1.000  H
  H12      1.0000 0.16451  0.30682  0.49102  Biso   1.000  H
  H13      1.0000 0.02658  0.52435  0.15774  Biso   1.000  H
  H14      1.0000 0.47562  0.50216  0.15768  Biso   1.000  H
  H15      1.0000 0.49785  0.97349  0.15768  Biso   1.000  H
  H16      1.0000 0.35991  0.19102  0.82440  Biso   1.000  H
  H17      1.0000 0.80895  0.16883  0.82434  Biso   1.000  H
  H18      1.0000 0.83118  0.64016  0.82434  Biso   1.000  H
