data_image0
_cell_length_a       20.0074
_cell_length_b       19.4683
_cell_length_c       13.1618
_cell_angle_alpha    90
_cell_angle_beta     90.0324
_cell_angle_gamma    90

_symmetry_space_group_name_H-M    "P 1"
_symmetry_int_tables_number       1

loop_
  _symmetry_equiv_pos_as_xyz
  'x, y, z'

loop_
  _atom_site_label
  _atom_site_occupancy
  _atom_site_fract_x
  _atom_site_fract_y
  _atom_site_fract_z
  _atom_site_thermal_displace_type
  _atom_site_B_iso_or_equiv
  _atom_site_type_symbol
  O1       1.0000 0.50554  0.08331  0.70698  Biso   1.000  O
  O2       1.0000 0.99524  0.58118  0.20922  Biso   1.000  O
  O3       1.0000 0.50554  0.41669  0.70698  Biso   1.000  O
  O4       1.0000 0.99524  0.91882  0.20922  Biso   1.000  O
  O5       1.0000 0.49446  0.91669  0.29302  Biso   1.000  O
  O6       1.0000 0.00476  0.41882  0.79078  Biso   1.000  O
  O7       1.0000 0.49446  0.58331  0.29302  Biso   1.000  O
  O8       1.0000 0.00476  0.08118  0.79078  Biso   1.000  O
  O9       1.0000 0.39058  0.07676  0.80181  Biso   1.000  O
  O10      1.0000 0.11132  0.57863  0.30183  Biso   1.000  O
  O11      1.0000 0.39058  0.42324  0.80181  Biso   1.000  O
  O12      1.0000 0.11132  0.92137  0.30183  Biso   1.000  O
  O13      1.0000 0.60942  0.92324  0.19819  Biso   1.000  O
  O14      1.0000 0.88868  0.42137  0.69817  Biso   1.000  O
  O15      1.0000 0.60942  0.57676  0.19819  Biso   1.000  O
  O16      1.0000 0.88868  0.07863  0.69817  Biso   1.000  O
  O17      1.0000 0.39958  0.14418  0.62869  Biso   1.000  O
  O18      1.0000 0.09806  0.64551  0.12848  Biso   1.000  O
  O19      1.0000 0.39958  0.35582  0.62869  Biso   1.000  O
  O20      1.0000 0.09806  0.85449  0.12848  Biso   1.000  O
  O21      1.0000 0.60042  0.85582  0.37131  Biso   1.000  O
  O22      1.0000 0.90194  0.35449  0.87152  Biso   1.000  O
  O23      1.0000 0.60042  0.64418  0.37131  Biso   1.000  O
  O24      1.0000 0.90194  0.14551  0.87152  Biso   1.000  O
  O25      1.0000 0.40868  0.00627  0.62843  Biso   1.000  O
  O26      1.0000 0.09454  0.50766  0.12875  Biso   1.000  O
  O27      1.0000 0.40868  0.49373  0.62843  Biso   1.000  O
  O28      1.0000 0.09454  0.99234  0.12875  Biso   1.000  O
  O29      1.0000 0.59132  0.99373  0.37157  Biso   1.000  O
  O30      1.0000 0.90546  0.49234  0.87125  Biso   1.000  O
  O31      1.0000 0.59132  0.50627  0.37157  Biso   1.000  O
  O32      1.0000 0.90546  0.00766  0.87125  Biso   1.000  O
  O33      1.0000 0.33157  0.03585  0.97477  Biso   1.000  O
  O34      1.0000 0.16864  0.53553  0.47580  Biso   1.000  O
  O35      1.0000 0.33157  0.46415  0.97477  Biso   1.000  O
  O36      1.0000 0.16864  0.96447  0.47580  Biso   1.000  O
  O37      1.0000 0.66843  0.96415  0.02523  Biso   1.000  O
  O38      1.0000 0.83136  0.46447  0.52420  Biso   1.000  O
  O39      1.0000 0.66843  0.53585  0.02523  Biso   1.000  O
  O40      1.0000 0.83136  0.03553  0.52420  Biso   1.000  O
  O41      1.0000 0.33646  0.95507  0.81045  Biso   1.000  O
  O42      1.0000 0.16109  0.45532  0.31114  Biso   1.000  O
  O43      1.0000 0.33646  0.54493  0.81045  Biso   1.000  O
  O44      1.0000 0.16109  0.04468  0.31114  Biso   1.000  O
  O45      1.0000 0.66354  0.04493  0.18955  Biso   1.000  O
  O46      1.0000 0.83891  0.54468  0.68886  Biso   1.000  O
  O47      1.0000 0.66354  0.45507  0.18955  Biso   1.000  O
  O48      1.0000 0.83891  0.95532  0.68886  Biso   1.000  O
  O49      1.0000 0.25783  0.06649  0.81744  Biso   1.000  O
  O50      1.0000 0.24379  0.56378  0.31949  Biso   1.000  O
  O51      1.0000 0.25783  0.43351  0.81744  Biso   1.000  O
  O52      1.0000 0.24379  0.93622  0.31949  Biso   1.000  O
  O53      1.0000 0.74217  0.93351  0.18256  Biso   1.000  O
  O54      1.0000 0.75621  0.43622  0.68051  Biso   1.000  O
  O55      1.0000 0.74217  0.56649  0.18256  Biso   1.000  O
  O56      1.0000 0.75621  0.06378  0.68051  Biso   1.000  O
  O57      1.0000 0.28828  0.13117  0.10159  Biso   1.000  O
  O58      1.0000 0.21283  0.63047  0.60245  Biso   1.000  O
  O59      1.0000 0.28828  0.36883  0.10159  Biso   1.000  O
  O60      1.0000 0.21283  0.86953  0.60245  Biso   1.000  O
  O61      1.0000 0.71172  0.86883  0.89841  Biso   1.000  O
  O62      1.0000 0.78717  0.36953  0.39755  Biso   1.000  O
  O63      1.0000 0.71172  0.63117  0.89841  Biso   1.000  O
  O64      1.0000 0.78717  0.13047  0.39755  Biso   1.000  O
  O65      1.0000 0.20262  0.03568  0.02718  Biso   1.000  O
  O66      1.0000 0.29723  0.53294  0.53178  Biso   1.000  O
  O67      1.0000 0.20262  0.46432  0.02718  Biso   1.000  O
  O68      1.0000 0.29723  0.96706  0.53178  Biso   1.000  O
  O69      1.0000 0.79738  0.96432  0.97282  Biso   1.000  O
  O70      1.0000 0.70277  0.46706  0.46822  Biso   1.000  O
  O71      1.0000 0.79738  0.53568  0.97282  Biso   1.000  O
  O72      1.0000 0.70277  0.03294  0.46822  Biso   1.000  O
  O73      1.0000 0.29618  0.00289  0.16265  Biso   1.000  O
  O74      1.0000 0.20232  0.50268  0.66486  Biso   1.000  O
  O75      1.0000 0.29618  0.49711  0.16265  Biso   1.000  O
  O76      1.0000 0.20232  0.99732  0.66486  Biso   1.000  O
  O77      1.0000 0.70382  0.99711  0.83735  Biso   1.000  O
  O78      1.0000 0.79768  0.49732  0.33514  Biso   1.000  O
  O79      1.0000 0.70382  0.50289  0.83735  Biso   1.000  O
  O80      1.0000 0.79768  0.00268  0.33514  Biso   1.000  O
  O81      1.0000 0.11372  0.12620  0.09528  Biso   1.000  O
  O82      1.0000 0.38410  0.62672  0.59725  Biso   1.000  O
  O83      1.0000 0.11372  0.37380  0.09528  Biso   1.000  O
  O84      1.0000 0.38410  0.87328  0.59725  Biso   1.000  O
  O85      1.0000 0.88628  0.87380  0.90472  Biso   1.000  O
  O86      1.0000 0.61590  0.37328  0.40275  Biso   1.000  O
  O87      1.0000 0.88628  0.62620  0.90472  Biso   1.000  O
  O88      1.0000 0.61590  0.12672  0.40275  Biso   1.000  O
  O89      1.0000 0.08076  0.04193  0.94538  Biso   1.000  O
  O90      1.0000 0.41688  0.54427  0.44500  Biso   1.000  O
  O91      1.0000 0.08076  0.45807  0.94538  Biso   1.000  O
  O92      1.0000 0.41688  0.95573  0.44500  Biso   1.000  O
  O93      1.0000 0.91924  0.95807  0.05462  Biso   1.000  O
  O94      1.0000 0.58312  0.45573  0.55500  Biso   1.000  O
  O95      1.0000 0.91924  0.54193  0.05462  Biso   1.000  O
  O96      1.0000 0.58312  0.04427  0.55500  Biso   1.000  O
  O97      1.0000 0.13276  0.08862  0.76928  Biso   1.000  O
  O98      1.0000 0.36707  0.58855  0.26617  Biso   1.000  O
  O99      1.0000 0.13276  0.41138  0.76928  Biso   1.000  O
  O100     1.0000 0.36707  0.91145  0.26617  Biso   1.000  O
  O101     1.0000 0.86724  0.91138  0.23072  Biso   1.000  O
  O102     1.0000 0.63293  0.41145  0.73383  Biso   1.000  O
  O103     1.0000 0.86724  0.58862  0.23072  Biso   1.000  O
  O104     1.0000 0.63293  0.08855  0.73383  Biso   1.000  O
  O105     1.0000 0.07533  0.96529  0.77790  Biso   1.000  O
  O106     1.0000 0.42503  0.46590  0.27963  Biso   1.000  O
  O107     1.0000 0.07533  0.53471  0.77790  Biso   1.000  O
  O108     1.0000 0.42503  0.03410  0.27963  Biso   1.000  O
  O109     1.0000 0.92467  0.03471  0.22210  Biso   1.000  O
  O110     1.0000 0.57497  0.53410  0.72037  Biso   1.000  O
  O111     1.0000 0.92467  0.46529  0.22210  Biso   1.000  O
  O112     1.0000 0.57497  0.96590  0.72037  Biso   1.000  O
  O113     1.0000 0.23101  0.13195  0.64894  Biso   1.000  O
  O114     1.0000 0.26647  0.63161  0.15057  Biso   1.000  O
  O115     1.0000 0.23101  0.36805  0.64894  Biso   1.000  O
  O116     1.0000 0.26647  0.86839  0.15057  Biso   1.000  O
  O117     1.0000 0.76899  0.86805  0.35106  Biso   1.000  O
  O118     1.0000 0.73353  0.36839  0.84943  Biso   1.000  O
  O119     1.0000 0.76899  0.63195  0.35106  Biso   1.000  O
  O120     1.0000 0.73353  0.13161  0.84943  Biso   1.000  O
  O121     1.0000 0.49081  0.86126  0.72030  Biso   1.000  O
  O122     1.0000 0.00903  0.36078  0.22181  Biso   1.000  O
  O123     1.0000 0.49081  0.63874  0.72030  Biso   1.000  O
  O124     1.0000 0.00903  0.13922  0.22181  Biso   1.000  O
  O125     1.0000 0.50919  0.13874  0.27970  Biso   1.000  O
  O126     1.0000 0.99097  0.63922  0.77819  Biso   1.000  O
  O127     1.0000 0.50919  0.36126  0.27970  Biso   1.000  O
  O128     1.0000 0.99097  0.86078  0.77819  Biso   1.000  O
  O129     1.0000 0.37140  0.82601  0.78729  Biso   1.000  O
  O130     1.0000 0.12934  0.32550  0.28424  Biso   1.000  O
  O131     1.0000 0.37140  0.67399  0.78729  Biso   1.000  O
  O132     1.0000 0.12934  0.17450  0.28424  Biso   1.000  O
  O133     1.0000 0.62860  0.17399  0.21271  Biso   1.000  O
  O134     1.0000 0.87066  0.67450  0.71576  Biso   1.000  O
  O135     1.0000 0.62860  0.32601  0.21271  Biso   1.000  O
  O136     1.0000 0.87066  0.82550  0.71576  Biso   1.000  O
  O137     1.0000 0.42930  0.75000  0.64531  Biso   1.000  O
  O138     1.0000 0.06978  0.25000  0.14320  Biso   1.000  O
  O139     1.0000 0.57070  0.25000  0.35469  Biso   1.000  O
  O140     1.0000 0.93022  0.75000  0.85680  Biso   1.000  O
  O141     1.0000 0.31752  0.86683  0.96332  Biso   1.000  O
  O142     1.0000 0.18107  0.36648  0.46142  Biso   1.000  O
  O143     1.0000 0.31752  0.63317  0.96332  Biso   1.000  O
  O144     1.0000 0.18107  0.13352  0.46142  Biso   1.000  O
  O145     1.0000 0.68248  0.13317  0.03668  Biso   1.000  O
  O146     1.0000 0.81893  0.63352  0.53858  Biso   1.000  O
  O147     1.0000 0.68248  0.36683  0.03668  Biso   1.000  O
  O148     1.0000 0.81893  0.86648  0.53858  Biso   1.000  O
  O149     1.0000 0.24178  0.86105  0.79984  Biso   1.000  O
  O150     1.0000 0.25784  0.36339  0.29810  Biso   1.000  O
  O151     1.0000 0.24178  0.63895  0.79984  Biso   1.000  O
  O152     1.0000 0.25784  0.13661  0.29810  Biso   1.000  O
  O153     1.0000 0.75822  0.13895  0.20016  Biso   1.000  O
  O154     1.0000 0.74216  0.63661  0.70190  Biso   1.000  O
  O155     1.0000 0.75822  0.36105  0.20016  Biso   1.000  O
  O156     1.0000 0.74216  0.86339  0.70190  Biso   1.000  O
  O157     1.0000 0.29433  0.75000  0.06215  Biso   1.000  O
  O158     1.0000 0.20506  0.25000  0.56003  Biso   1.000  O
  O159     1.0000 0.70567  0.25000  0.93785  Biso   1.000  O
  O160     1.0000 0.79494  0.75000  0.43997  Biso   1.000  O
  O161     1.0000 0.19306  0.82679  0.99500  Biso   1.000  O
  O162     1.0000 0.30580  0.32762  0.49343  Biso   1.000  O
  O163     1.0000 0.19306  0.67321  0.99500  Biso   1.000  O
  O164     1.0000 0.30580  0.17238  0.49343  Biso   1.000  O
  O165     1.0000 0.80694  0.17321  0.00500  Biso   1.000  O
  O166     1.0000 0.69420  0.67238  0.50657  Biso   1.000  O
  O167     1.0000 0.80694  0.32679  0.00500  Biso   1.000  O
  O168     1.0000 0.69420  0.82762  0.50657  Biso   1.000  O
  O169     1.0000 0.08326  0.75000  0.99994  Biso   1.000  O
  O170     1.0000 0.41501  0.25000  0.50218  Biso   1.000  O
  O171     1.0000 0.91674  0.25000  0.00006  Biso   1.000  O
  O172     1.0000 0.58499  0.75000  0.49782  Biso   1.000  O
  O173     1.0000 0.07745  0.87758  0.93114  Biso   1.000  O
  O174     1.0000 0.42252  0.37746  0.43219  Biso   1.000  O
  O175     1.0000 0.07745  0.62242  0.93114  Biso   1.000  O
  O176     1.0000 0.42252  0.12254  0.43219  Biso   1.000  O
  O177     1.0000 0.92255  0.12242  0.06886  Biso   1.000  O
  O178     1.0000 0.57748  0.62254  0.56781  Biso   1.000  O
  O179     1.0000 0.92255  0.37758  0.06886  Biso   1.000  O
  O180     1.0000 0.57748  0.87746  0.56781  Biso   1.000  O
  O181     1.0000 0.11791  0.83800  0.74280  Biso   1.000  O
  O182     1.0000 0.38206  0.33853  0.24423  Biso   1.000  O
  O183     1.0000 0.11791  0.66200  0.74280  Biso   1.000  O
  O184     1.0000 0.38206  0.16147  0.24423  Biso   1.000  O
  O185     1.0000 0.88209  0.16200  0.25720  Biso   1.000  O
  O186     1.0000 0.61794  0.66147  0.75577  Biso   1.000  O
  O187     1.0000 0.88209  0.33800  0.25720  Biso   1.000  O
  O188     1.0000 0.61794  0.83853  0.75577  Biso   1.000  O
  O189     1.0000 0.21343  0.75000  0.68915  Biso   1.000  O
  O190     1.0000 0.28659  0.25000  0.19212  Biso   1.000  O
  O191     1.0000 0.78657  0.25000  0.31085  Biso   1.000  O
  O192     1.0000 0.71341  0.75000  0.80788  Biso   1.000  O
  Si1      1.0000 0.42568  0.07668  0.68996  Biso   1.000  Si
  Si2      1.0000 0.07510  0.57722  0.19064  Biso   1.000  Si
  Si3      1.0000 0.42568  0.42332  0.68996  Biso   1.000  Si
  Si4      1.0000 0.07510  0.92278  0.19064  Biso   1.000  Si
  Si5      1.0000 0.57432  0.92332  0.31004  Biso   1.000  Si
  Si6      1.0000 0.92490  0.42278  0.80936  Biso   1.000  Si
  Si7      1.0000 0.57432  0.57668  0.31004  Biso   1.000  Si
  Si8      1.0000 0.92490  0.07722  0.80936  Biso   1.000  Si
  Si9      1.0000 0.32908  0.03374  0.85143  Biso   1.000  Si
  Si10     1.0000 0.17119  0.53360  0.35241  Biso   1.000  Si
  Si11     1.0000 0.32908  0.46626  0.85143  Biso   1.000  Si
  Si12     1.0000 0.17119  0.96640  0.35241  Biso   1.000  Si
  Si13     1.0000 0.67092  0.96626  0.14857  Biso   1.000  Si
  Si14     1.0000 0.82881  0.46640  0.64759  Biso   1.000  Si
  Si15     1.0000 0.67092  0.53374  0.14857  Biso   1.000  Si
  Si16     1.0000 0.82881  0.03360  0.64759  Biso   1.000  Si
  Si17     1.0000 0.27876  0.05157  0.06608  Biso   1.000  Si
  Si18     1.0000 0.22101  0.55058  0.56804  Biso   1.000  Si
  Si19     1.0000 0.27876  0.44843  0.06608  Biso   1.000  Si
  Si20     1.0000 0.22101  0.94942  0.56804  Biso   1.000  Si
  Si21     1.0000 0.72124  0.94843  0.93392  Biso   1.000  Si
  Si22     1.0000 0.77899  0.44942  0.43196  Biso   1.000  Si
  Si23     1.0000 0.72124  0.55157  0.93392  Biso   1.000  Si
  Si24     1.0000 0.77899  0.05058  0.43196  Biso   1.000  Si
  Si25     1.0000 0.12337  0.04906  0.04961  Biso   1.000  Si
  Si26     1.0000 0.37621  0.54950  0.55099  Biso   1.000  Si
  Si27     1.0000 0.12337  0.45094  0.04961  Biso   1.000  Si
  Si28     1.0000 0.37621  0.95050  0.55099  Biso   1.000  Si
  Si29     1.0000 0.87663  0.95094  0.95039  Biso   1.000  Si
  Si30     1.0000 0.62379  0.45050  0.44901  Biso   1.000  Si
  Si31     1.0000 0.87663  0.54906  0.95039  Biso   1.000  Si
  Si32     1.0000 0.62379  0.04950  0.44901  Biso   1.000  Si
  Si33     1.0000 0.07384  0.04350  0.82228  Biso   1.000  Si
  Si34     1.0000 0.42552  0.54457  0.32236  Biso   1.000  Si
  Si35     1.0000 0.07384  0.45650  0.82228  Biso   1.000  Si
  Si36     1.0000 0.42552  0.95543  0.32236  Biso   1.000  Si
  Si37     1.0000 0.92616  0.95650  0.17772  Biso   1.000  Si
  Si38     1.0000 0.57448  0.45543  0.67764  Biso   1.000  Si
  Si39     1.0000 0.92616  0.54350  0.17772  Biso   1.000  Si
  Si40     1.0000 0.57448  0.04457  0.67764  Biso   1.000  Si
  Si41     1.0000 0.20589  0.07086  0.72295  Biso   1.000  Si
  Si42     1.0000 0.29344  0.57004  0.22242  Biso   1.000  Si
  Si43     1.0000 0.20589  0.42914  0.72295  Biso   1.000  Si
  Si44     1.0000 0.29344  0.92996  0.22242  Biso   1.000  Si
  Si45     1.0000 0.79411  0.92914  0.27705  Biso   1.000  Si
  Si46     1.0000 0.70656  0.42996  0.77758  Biso   1.000  Si
  Si47     1.0000 0.79411  0.57086  0.27705  Biso   1.000  Si
  Si48     1.0000 0.70656  0.07004  0.77758  Biso   1.000  Si
  Si49     1.0000 0.41946  0.82820  0.68701  Biso   1.000  Si
  Si50     1.0000 0.07990  0.32806  0.18554  Biso   1.000  Si
  Si51     1.0000 0.41946  0.67180  0.68701  Biso   1.000  Si
  Si52     1.0000 0.07990  0.17194  0.18554  Biso   1.000  Si
  Si53     1.0000 0.58054  0.17180  0.31299  Biso   1.000  Si
  Si54     1.0000 0.92010  0.67194  0.81446  Biso   1.000  Si
  Si55     1.0000 0.58054  0.32820  0.31299  Biso   1.000  Si
  Si56     1.0000 0.92010  0.82806  0.81446  Biso   1.000  Si
  Si57     1.0000 0.31704  0.87660  0.84024  Biso   1.000  Si
  Si58     1.0000 0.18225  0.37697  0.33860  Biso   1.000  Si
  Si59     1.0000 0.31704  0.62340  0.84024  Biso   1.000  Si
  Si60     1.0000 0.18225  0.12303  0.33860  Biso   1.000  Si
  Si61     1.0000 0.68296  0.12340  0.15976  Biso   1.000  Si
  Si62     1.0000 0.81775  0.62303  0.66140  Biso   1.000  Si
  Si63     1.0000 0.68296  0.37660  0.15976  Biso   1.000  Si
  Si64     1.0000 0.81775  0.87697  0.66140  Biso   1.000  Si
  Si65     1.0000 0.26786  0.82796  0.04314  Biso   1.000  Si
  Si66     1.0000 0.23090  0.32807  0.54134  Biso   1.000  Si
  Si67     1.0000 0.26786  0.67204  0.04314  Biso   1.000  Si
  Si68     1.0000 0.23090  0.17193  0.54134  Biso   1.000  Si
  Si69     1.0000 0.73214  0.17204  0.95686  Biso   1.000  Si
  Si70     1.0000 0.76910  0.67193  0.45866  Biso   1.000  Si
  Si71     1.0000 0.73214  0.32796  0.95686  Biso   1.000  Si
  Si72     1.0000 0.76910  0.82807  0.45866  Biso   1.000  Si
  Si73     1.0000 0.11289  0.82742  0.01419  Biso   1.000  Si
  Si74     1.0000 0.38582  0.32777  0.51456  Biso   1.000  Si
  Si75     1.0000 0.11289  0.67258  0.01419  Biso   1.000  Si
  Si76     1.0000 0.38582  0.17223  0.51456  Biso   1.000  Si
  Si77     1.0000 0.88711  0.17258  0.98581  Biso   1.000  Si
  Si78     1.0000 0.61418  0.67223  0.48544  Biso   1.000  Si
  Si79     1.0000 0.88711  0.32742  0.98581  Biso   1.000  Si
  Si80     1.0000 0.61418  0.82777  0.48544  Biso   1.000  Si
  Si81     1.0000 0.06608  0.88497  0.80843  Biso   1.000  Si
  Si82     1.0000 0.43409  0.38545  0.30968  Biso   1.000  Si
  Si83     1.0000 0.06608  0.61503  0.80843  Biso   1.000  Si
  Si84     1.0000 0.43409  0.11455  0.30968  Biso   1.000  Si
  Si85     1.0000 0.93392  0.11503  0.19157  Biso   1.000  Si
  Si86     1.0000 0.56591  0.61455  0.69032  Biso   1.000  Si
  Si87     1.0000 0.93392  0.38497  0.19157  Biso   1.000  Si
  Si88     1.0000 0.56591  0.88545  0.69032  Biso   1.000  Si
  Si89     1.0000 0.19590  0.83010  0.70875  Biso   1.000  Si
  Si90     1.0000 0.30424  0.33043  0.20917  Biso   1.000  Si
  Si91     1.0000 0.19590  0.66990  0.70875  Biso   1.000  Si
  Si92     1.0000 0.30424  0.16957  0.20917  Biso   1.000  Si
  Si93     1.0000 0.80410  0.16990  0.29125  Biso   1.000  Si
  Si94     1.0000 0.69576  0.66957  0.79083  Biso   1.000  Si
  Si95     1.0000 0.80410  0.33010  0.29125  Biso   1.000  Si
  Si96     1.0000 0.69576  0.83043  0.79083  Biso   1.000  Si
