data_image0
_cell_length_a       7.01027
_cell_length_b       14.0401
_cell_length_c       15.6373
_cell_angle_alpha    89.9998
_cell_angle_beta     90.0145
_cell_angle_gamma    90.0079

_symmetry_space_group_name_H-M    "P 1"
_symmetry_int_tables_number       1

loop_
  _symmetry_equiv_pos_as_xyz
  'x, y, z'

loop_
  _atom_site_label
  _atom_site_occupancy
  _atom_site_fract_x
  _atom_site_fract_y
  _atom_site_fract_z
  _atom_site_thermal_displace_type
  _atom_site_B_iso_or_equiv
  _atom_site_type_symbol
  C1       1.0000 0.79735  0.12934  0.10861  Biso   1.000  C
  C2       1.0000 0.70297  0.87064  0.60859  Biso   1.000  C
  C3       1.0000 0.20270  0.62933  0.39145  Biso   1.000  C
  C4       1.0000 0.29708  0.37061  0.89141  Biso   1.000  C
  C5       1.0000 0.77230  0.05726  0.17686  Biso   1.000  C
  C6       1.0000 0.72808  0.94268  0.67689  Biso   1.000  C
  C7       1.0000 0.22780  0.55724  0.32321  Biso   1.000  C
  C8       1.0000 0.27199  0.44267  0.82313  Biso   1.000  C
  C9       1.0000 0.60035  0.05446  0.22310  Biso   1.000  C
  C10      1.0000 0.90003  0.94549  0.72317  Biso   1.000  C
  C11      1.0000 0.39980  0.55446  0.27700  Biso   1.000  C
  C12      1.0000 0.10002  0.44549  0.77685  Biso   1.000  C
  H1       1.0000 0.48802  0.10478  0.20714  Biso   1.000  H
  H2       1.0000 0.01242  0.89521  0.70722  Biso   1.000  H
  H3       1.0000 0.51212  0.60479  0.29299  Biso   1.000  H
  H4       1.0000 0.98763  0.39519  0.79278  Biso   1.000  H
  C13      1.0000 0.57640  0.98865  0.28873  Biso   1.000  C
  C14      1.0000 0.92391  0.01129  0.78883  Biso   1.000  C
  C15      1.0000 0.42380  0.48865  0.21139  Biso   1.000  C
  C16      1.0000 0.07614  0.51131  0.71122  Biso   1.000  C
  H5       1.0000 0.44535  0.98661  0.32582  Biso   1.000  H
  H6       1.0000 0.05499  0.01332  0.82593  Biso   1.000  H
  H7       1.0000 0.55488  0.48663  0.17432  Biso   1.000  H
  H8       1.0000 0.94508  0.51336  0.67411  Biso   1.000  H
  C17      1.0000 0.72444  0.92483  0.30863  Biso   1.000  C
  C18      1.0000 0.77582  0.07507  0.80872  Biso   1.000  C
  C19      1.0000 0.27576  0.42481  0.19146  Biso   1.000  C
  C20      1.0000 0.22425  0.57512  0.69134  Biso   1.000  C
  C21      1.0000 0.89568  0.92697  0.26184  Biso   1.000  C
  C22      1.0000 0.60461  0.07293  0.76187  Biso   1.000  C
  C23      1.0000 0.10450  0.42692  0.23823  Biso   1.000  C
  C24      1.0000 0.39548  0.57296  0.73818  Biso   1.000  C
  H9       1.0000 0.00820  0.87682  0.27794  Biso   1.000  H
  H10      1.0000 0.49210  0.12307  0.77795  Biso   1.000  H
  H11      1.0000 0.99200  0.37675  0.22211  Biso   1.000  H
  H12      1.0000 0.50803  0.62310  0.72210  Biso   1.000  H
  C25      1.0000 0.91964  0.99281  0.19620  Biso   1.000  C
  C26      1.0000 0.58072  0.00710  0.69621  Biso   1.000  C
  C27      1.0000 0.08049  0.49277  0.30386  Biso   1.000  C
  C28      1.0000 0.41937  0.50711  0.80382  Biso   1.000  C
  H13      1.0000 0.05094  0.99499  0.15930  Biso   1.000  H
  H14      1.0000 0.44945  0.00493  0.65925  Biso   1.000  H
  H15      1.0000 0.94918  0.49492  0.34076  Biso   1.000  H
  H16      1.0000 0.55065  0.50491  0.84076  Biso   1.000  H
  C29      1.0000 0.70184  0.85636  0.37997  Biso   1.000  C
  C30      1.0000 0.79829  0.14356  0.88006  Biso   1.000  C
  C31      1.0000 0.29837  0.35637  0.12011  Biso   1.000  C
  C32      1.0000 0.20174  0.64361  0.62001  Biso   1.000  C
  O1       1.0000 0.30896  0.17916  0.99627  Biso   1.000  O
  O2       1.0000 0.19115  0.82086  0.49625  Biso   1.000  O
  O3       1.0000 0.69108  0.67916  0.50377  Biso   1.000  O
  O4       1.0000 0.80886  0.32086  0.00374  Biso   1.000  O
  O5       1.0000 0.96637  0.14633  0.08146  Biso   1.000  O
  O6       1.0000 0.53391  0.85368  0.58143  Biso   1.000  O
  O7       1.0000 0.03368  0.64628  0.41860  Biso   1.000  O
  O8       1.0000 0.46613  0.35364  0.91859  Biso   1.000  O
  O9       1.0000 0.53392  0.84139  0.40923  Biso   1.000  O
  O10      1.0000 0.96617  0.15855  0.90938  Biso   1.000  O
  O11      1.0000 0.46629  0.34138  0.09088  Biso   1.000  O
  O12      1.0000 0.03382  0.65860  0.59075  Biso   1.000  O
  O13      1.0000 0.64622  0.17185  0.08195  Biso   1.000  O
  O14      1.0000 0.85408  0.82815  0.58192  Biso   1.000  O
  O15      1.0000 0.35382  0.67188  0.41808  Biso   1.000  O
  O16      1.0000 0.14595  0.32813  0.91809  Biso   1.000  O
  O17      1.0000 0.85396  0.81578  0.40800  Biso   1.000  O
  O18      1.0000 0.64615  0.18416  0.90803  Biso   1.000  O
  O19      1.0000 0.14623  0.31582  0.09202  Biso   1.000  O
  O20      1.0000 0.35387  0.68420  0.59201  Biso   1.000  O
  V1       1.0000 0.10142  0.22683  0.99955  Biso   1.000  V
  V2       1.0000 0.39869  0.77318  0.49950  Biso   1.000  V
  V3       1.0000 0.89866  0.72682  0.50050  Biso   1.000  V
  V4       1.0000 0.60133  0.27315  0.00053  Biso   1.000  V
