data_image0
_cell_length_a       11.8855
_cell_length_b       16.5666
_cell_length_c       15.1743
_cell_angle_alpha    90
_cell_angle_beta     94.7458
_cell_angle_gamma    90

_symmetry_space_group_name_H-M    "P 1"
_symmetry_int_tables_number       1

loop_
  _symmetry_equiv_pos_as_xyz
  'x, y, z'

loop_
  _atom_site_label
  _atom_site_occupancy
  _atom_site_fract_x
  _atom_site_fract_y
  _atom_site_fract_z
  _atom_site_thermal_displace_type
  _atom_site_B_iso_or_equiv
  _atom_site_type_symbol
  O1       1.0000 0.00989  0.25402  0.04861  Biso   1.000  O
  O2       1.0000 0.99013  0.25403  0.45138  Biso   1.000  O
  O3       1.0000 0.50988  0.75403  0.04859  Biso   1.000  O
  O4       1.0000 0.49012  0.75403  0.45137  Biso   1.000  O
  O5       1.0000 0.99013  0.74597  0.95138  Biso   1.000  O
  O6       1.0000 0.00989  0.74598  0.54861  Biso   1.000  O
  O7       1.0000 0.49012  0.24597  0.95137  Biso   1.000  O
  O8       1.0000 0.50988  0.24597  0.54859  Biso   1.000  O
  Ag1      1.0000 0.19735  0.74618  0.07534  Biso   1.000  Ag
  Ag2      1.0000 0.80267  0.74618  0.42463  Biso   1.000  Ag
  Ag3      1.0000 0.69736  0.24617  0.07534  Biso   1.000  Ag
  Ag4      1.0000 0.30270  0.24618  0.42464  Biso   1.000  Ag
  Ag5      1.0000 0.80267  0.25382  0.92463  Biso   1.000  Ag
  Ag6      1.0000 0.19735  0.25382  0.57534  Biso   1.000  Ag
  Ag7      1.0000 0.30270  0.75382  0.92464  Biso   1.000  Ag
  Ag8      1.0000 0.69736  0.75383  0.57534  Biso   1.000  Ag
  Ag9      1.0000 0.92091  0.17143  0.14160  Biso   1.000  Ag
  Ag10     1.0000 0.07912  0.17145  0.35839  Biso   1.000  Ag
  Ag11     1.0000 0.42092  0.67145  0.14160  Biso   1.000  Ag
  Ag12     1.0000 0.57913  0.67144  0.35839  Biso   1.000  Ag
  Ag13     1.0000 0.07912  0.82855  0.85839  Biso   1.000  Ag
  Ag14     1.0000 0.92091  0.82857  0.64160  Biso   1.000  Ag
  Ag15     1.0000 0.57913  0.32856  0.85839  Biso   1.000  Ag
  Ag16     1.0000 0.42092  0.32855  0.64160  Biso   1.000  Ag
  Ag17     1.0000 0.87588  0.31791  0.21671  Biso   1.000  Ag
  Ag18     1.0000 0.12417  0.31792  0.28327  Biso   1.000  Ag
  Ag19     1.0000 0.37586  0.81792  0.21671  Biso   1.000  Ag
  Ag20     1.0000 0.62414  0.81791  0.28326  Biso   1.000  Ag
  Ag21     1.0000 0.12417  0.68208  0.78327  Biso   1.000  Ag
  Ag22     1.0000 0.87588  0.68209  0.71671  Biso   1.000  Ag
  Ag23     1.0000 0.62414  0.18209  0.78326  Biso   1.000  Ag
  Ag24     1.0000 0.37586  0.18208  0.71671  Biso   1.000  Ag
  O9       1.0000 0.18466  0.61426  0.04128  Biso   1.000  O
  O10      1.0000 0.81540  0.61426  0.45870  Biso   1.000  O
  O11      1.0000 0.68465  0.11426  0.04128  Biso   1.000  O
  O12      1.0000 0.31538  0.11426  0.45870  Biso   1.000  O
  O13      1.0000 0.81540  0.38574  0.95870  Biso   1.000  O
  O14      1.0000 0.18466  0.38574  0.54128  Biso   1.000  O
  O15      1.0000 0.31538  0.88574  0.95870  Biso   1.000  O
  O16      1.0000 0.68465  0.88574  0.54128  Biso   1.000  O
  O17      1.0000 0.26739  0.61881  0.91120  Biso   1.000  O
  O18      1.0000 0.73267  0.61883  0.58879  Biso   1.000  O
  O19      1.0000 0.76738  0.11882  0.91120  Biso   1.000  O
  O20      1.0000 0.23265  0.11882  0.58879  Biso   1.000  O
  O21      1.0000 0.73267  0.38117  0.08879  Biso   1.000  O
  O22      1.0000 0.26739  0.38119  0.41120  Biso   1.000  O
  O23      1.0000 0.23265  0.88118  0.08879  Biso   1.000  O
  O24      1.0000 0.76738  0.88118  0.41120  Biso   1.000  O
  O25      1.0000 0.00470  0.36795  0.13250  Biso   1.000  O
  O26      1.0000 0.99534  0.36796  0.36749  Biso   1.000  O
  O27      1.0000 0.50470  0.86795  0.13250  Biso   1.000  O
  O28      1.0000 0.49532  0.86796  0.36748  Biso   1.000  O
  O29      1.0000 0.99534  0.63204  0.86749  Biso   1.000  O
  O30      1.0000 0.00470  0.63205  0.63250  Biso   1.000  O
  O31      1.0000 0.49532  0.13204  0.86748  Biso   1.000  O
  O32      1.0000 0.50470  0.13205  0.63250  Biso   1.000  O
  O33      1.0000 0.27486  0.24722  0.80988  Biso   1.000  O
  O34      1.0000 0.72516  0.24723  0.69009  Biso   1.000  O
  O35      1.0000 0.77487  0.74724  0.80988  Biso   1.000  O
  O36      1.0000 0.22518  0.74722  0.69010  Biso   1.000  O
  O37      1.0000 0.72516  0.75277  0.19009  Biso   1.000  O
  O38      1.0000 0.27486  0.75278  0.30988  Biso   1.000  O
  O39      1.0000 0.22518  0.25278  0.19010  Biso   1.000  O
  O40      1.0000 0.77487  0.25276  0.30988  Biso   1.000  O
  O41      1.0000 0.34317  0.36742  0.76341  Biso   1.000  O
  O42      1.0000 0.65692  0.36745  0.73661  Biso   1.000  O
  O43      1.0000 0.84311  0.86745  0.76338  Biso   1.000  O
  O44      1.0000 0.15688  0.86743  0.73658  Biso   1.000  O
  O45      1.0000 0.65692  0.63255  0.23660  Biso   1.000  O
  O46      1.0000 0.34317  0.63258  0.26341  Biso   1.000  O
  O47      1.0000 0.15688  0.13257  0.23658  Biso   1.000  O
  O48      1.0000 0.84311  0.13255  0.26338  Biso   1.000  O
  N1       1.0000 0.06834  0.74302  0.18025  Biso   1.000  N
  N2       1.0000 0.93170  0.74302  0.31972  Biso   1.000  N
  N3       1.0000 0.56834  0.24302  0.18025  Biso   1.000  N
  N4       1.0000 0.43170  0.24301  0.31972  Biso   1.000  N
  N5       1.0000 0.93170  0.25698  0.81972  Biso   1.000  N
  N6       1.0000 0.06834  0.25698  0.68025  Biso   1.000  N
  N7       1.0000 0.43170  0.75699  0.81972  Biso   1.000  N
  N8       1.0000 0.56834  0.75698  0.68025  Biso   1.000  N
  N9       1.0000 0.97036  0.06227  0.05551  Biso   1.000  N
  N10      1.0000 0.02968  0.06227  0.44446  Biso   1.000  N
  N11      1.0000 0.47038  0.56228  0.05553  Biso   1.000  N
  N12      1.0000 0.52970  0.56227  0.44448  Biso   1.000  N
  N13      1.0000 0.02968  0.93773  0.94446  Biso   1.000  N
  N14      1.0000 0.97036  0.93773  0.55551  Biso   1.000  N
  N15      1.0000 0.52970  0.43773  0.94448  Biso   1.000  N
  N16      1.0000 0.47038  0.43772  0.55553  Biso   1.000  N
  C1       1.0000 0.21616  0.58277  0.97104  Biso   1.000  C
  C2       1.0000 0.78390  0.58279  0.52895  Biso   1.000  C
  C3       1.0000 0.71615  0.08278  0.97103  Biso   1.000  C
  C4       1.0000 0.28387  0.08278  0.52895  Biso   1.000  C
  C5       1.0000 0.78390  0.41721  0.02895  Biso   1.000  C
  C6       1.0000 0.21616  0.41723  0.47104  Biso   1.000  C
  C7       1.0000 0.28387  0.91722  0.02895  Biso   1.000  C
  C8       1.0000 0.71615  0.91722  0.47103  Biso   1.000  C
  C9       1.0000 0.03706  0.32661  0.06779  Biso   1.000  C
  C10      1.0000 0.96297  0.32662  0.43220  Biso   1.000  C
  C11      1.0000 0.53706  0.82661  0.06778  Biso   1.000  C
  C12      1.0000 0.46296  0.82661  0.43219  Biso   1.000  C
  C13      1.0000 0.96297  0.67338  0.93220  Biso   1.000  C
  C14      1.0000 0.03706  0.67339  0.56779  Biso   1.000  C
  C15      1.0000 0.46296  0.17339  0.93219  Biso   1.000  C
  C16      1.0000 0.53706  0.17339  0.56778  Biso   1.000  C
  C17      1.0000 0.28753  0.32362  0.81384  Biso   1.000  C
  C18      1.0000 0.71254  0.32364  0.68616  Biso   1.000  C
  C19      1.0000 0.78750  0.82364  0.81382  Biso   1.000  C
  C20      1.0000 0.21251  0.82362  0.68615  Biso   1.000  C
  C21      1.0000 0.71254  0.67636  0.18616  Biso   1.000  C
  C22      1.0000 0.28753  0.67638  0.31384  Biso   1.000  C
  C23      1.0000 0.21251  0.17638  0.18615  Biso   1.000  C
  C24      1.0000 0.78750  0.17636  0.31382  Biso   1.000  C
  C25      1.0000 0.19442  0.49414  0.95871  Biso   1.000  C
  C26      1.0000 0.80564  0.49415  0.54129  Biso   1.000  C
  C27      1.0000 0.69440  0.99415  0.95870  Biso   1.000  C
  C28      1.0000 0.30562  0.99414  0.54129  Biso   1.000  C
  C29      1.0000 0.80564  0.50585  0.04129  Biso   1.000  C
  C30      1.0000 0.19442  0.50586  0.45871  Biso   1.000  C
  C31      1.0000 0.30562  0.00586  0.04129  Biso   1.000  C
  C32      1.0000 0.69440  0.00585  0.45870  Biso   1.000  C
  C33      1.0000 0.12970  0.45248  0.01694  Biso   1.000  C
  C34      1.0000 0.87034  0.45249  0.48304  Biso   1.000  C
  C35      1.0000 0.62969  0.95249  0.01694  Biso   1.000  C
  C36      1.0000 0.37033  0.95249  0.48304  Biso   1.000  C
  C37      1.0000 0.87034  0.54751  0.98304  Biso   1.000  C
  C38      1.0000 0.12970  0.54752  0.51694  Biso   1.000  C
  C39      1.0000 0.37033  0.04751  0.98304  Biso   1.000  C
  C40      1.0000 0.62969  0.04751  0.51694  Biso   1.000  C
  H1       1.0000 0.09151  0.48503  0.06895  Biso   1.000  H
  H2       1.0000 0.90851  0.48505  0.43103  Biso   1.000  H
  H3       1.0000 0.59151  0.98504  0.06895  Biso   1.000  H
  H4       1.0000 0.40850  0.98504  0.43103  Biso   1.000  H
  H5       1.0000 0.90851  0.51495  0.93103  Biso   1.000  H
  H6       1.0000 0.09151  0.51497  0.56895  Biso   1.000  H
  H7       1.0000 0.40850  0.01496  0.93103  Biso   1.000  H
  H8       1.0000 0.59151  0.01496  0.56895  Biso   1.000  H
  C41      1.0000 0.11287  0.36907  0.00825  Biso   1.000  C
  C42      1.0000 0.88717  0.36908  0.49174  Biso   1.000  C
  C43      1.0000 0.61286  0.86908  0.00824  Biso   1.000  C
  C44      1.0000 0.38715  0.86908  0.49173  Biso   1.000  C
  C45      1.0000 0.88717  0.63092  0.99174  Biso   1.000  C
  C46      1.0000 0.11287  0.63093  0.50825  Biso   1.000  C
  C47      1.0000 0.38715  0.13092  0.99173  Biso   1.000  C
  C48      1.0000 0.61286  0.13092  0.50824  Biso   1.000  C
  C49      1.0000 0.16567  0.32670  0.94310  Biso   1.000  C
  C50      1.0000 0.83436  0.32672  0.55688  Biso   1.000  C
  C51      1.0000 0.66566  0.82672  0.94309  Biso   1.000  C
  C52      1.0000 0.33435  0.82671  0.55688  Biso   1.000  C
  C53      1.0000 0.83436  0.67328  0.05688  Biso   1.000  C
  C54      1.0000 0.16567  0.67330  0.44311  Biso   1.000  C
  C55      1.0000 0.33435  0.17329  0.05688  Biso   1.000  C
  C56      1.0000 0.66566  0.17328  0.44309  Biso   1.000  C
  H9       1.0000 0.15563  0.26173  0.93719  Biso   1.000  H
  H10      1.0000 0.84439  0.26174  0.56279  Biso   1.000  H
  H11      1.0000 0.65562  0.76174  0.93718  Biso   1.000  H
  H12      1.0000 0.34438  0.76174  0.56278  Biso   1.000  H
  H13      1.0000 0.84439  0.73826  0.06279  Biso   1.000  H
  H14      1.0000 0.15563  0.73827  0.43719  Biso   1.000  H
  H15      1.0000 0.34438  0.23826  0.06278  Biso   1.000  H
  H16      1.0000 0.65562  0.23826  0.43718  Biso   1.000  H
  C57      1.0000 0.23089  0.36782  0.88462  Biso   1.000  C
  C58      1.0000 0.76917  0.36783  0.61538  Biso   1.000  C
  C59      1.0000 0.73087  0.86783  0.88460  Biso   1.000  C
  C60      1.0000 0.26915  0.86782  0.61537  Biso   1.000  C
  C61      1.0000 0.76917  0.63217  0.11538  Biso   1.000  C
  C62      1.0000 0.23089  0.63218  0.38462  Biso   1.000  C
  C63      1.0000 0.26915  0.13218  0.11537  Biso   1.000  C
  C64      1.0000 0.73087  0.13217  0.38460  Biso   1.000  C
  C65      1.0000 0.24270  0.45176  0.89158  Biso   1.000  C
  C66      1.0000 0.75737  0.45178  0.60843  Biso   1.000  C
  C67      1.0000 0.74267  0.95178  0.89156  Biso   1.000  C
  C68      1.0000 0.25735  0.95177  0.60842  Biso   1.000  C
  C69      1.0000 0.75737  0.54822  0.10843  Biso   1.000  C
  C70      1.0000 0.24270  0.54824  0.39158  Biso   1.000  C
  C71      1.0000 0.25735  0.04823  0.10842  Biso   1.000  C
  C72      1.0000 0.74267  0.04822  0.39156  Biso   1.000  C
  H17      1.0000 0.29227  0.48362  0.84569  Biso   1.000  H
  H18      1.0000 0.70783  0.48364  0.65433  Biso   1.000  H
  H19      1.0000 0.79222  0.98364  0.84566  Biso   1.000  H
  H20      1.0000 0.20779  0.98362  0.65432  Biso   1.000  H
  H21      1.0000 0.70783  0.51636  0.15433  Biso   1.000  H
  H22      1.0000 0.29227  0.51638  0.34569  Biso   1.000  H
  H23      1.0000 0.20779  0.01638  0.15432  Biso   1.000  H
  H24      1.0000 0.79222  0.01636  0.34566  Biso   1.000  H
  C73      1.0000 0.03337  0.67358  0.21428  Biso   1.000  C
  C74      1.0000 0.96668  0.67358  0.28570  Biso   1.000  C
  C75      1.0000 0.53335  0.17358  0.21427  Biso   1.000  C
  C76      1.0000 0.46667  0.17358  0.28569  Biso   1.000  C
  C77      1.0000 0.96668  0.32642  0.78570  Biso   1.000  C
  C78      1.0000 0.03337  0.32642  0.71428  Biso   1.000  C
  C79      1.0000 0.46667  0.82642  0.78569  Biso   1.000  C
  C80      1.0000 0.53335  0.82642  0.71427  Biso   1.000  C
  H25      1.0000 0.06017  0.61790  0.18405  Biso   1.000  H
  H26      1.0000 0.93988  0.61789  0.31593  Biso   1.000  H
  H27      1.0000 0.56015  0.11790  0.18403  Biso   1.000  H
  H28      1.0000 0.43986  0.11789  0.31591  Biso   1.000  H
  H29      1.0000 0.93988  0.38211  0.81593  Biso   1.000  H
  H30      1.0000 0.06017  0.38210  0.68405  Biso   1.000  H
  H31      1.0000 0.43986  0.88211  0.81591  Biso   1.000  H
  H32      1.0000 0.56015  0.88210  0.68403  Biso   1.000  H
  C81      1.0000 0.03534  0.81254  0.21577  Biso   1.000  C
  C82      1.0000 0.96469  0.81254  0.28420  Biso   1.000  C
  C83      1.0000 0.53535  0.31254  0.21578  Biso   1.000  C
  C84      1.0000 0.46469  0.31254  0.28421  Biso   1.000  C
  C85      1.0000 0.96469  0.18746  0.78420  Biso   1.000  C
  C86      1.0000 0.03534  0.18746  0.71577  Biso   1.000  C
  C87      1.0000 0.46469  0.68746  0.78421  Biso   1.000  C
  C88      1.0000 0.53535  0.68746  0.71578  Biso   1.000  C
  H33      1.0000 0.06723  0.86804  0.18845  Biso   1.000  H
  H34      1.0000 0.93279  0.86804  0.31151  Biso   1.000  H
  H35      1.0000 0.56724  0.36804  0.18847  Biso   1.000  H
  H36      1.0000 0.43280  0.36804  0.31153  Biso   1.000  H
  H37      1.0000 0.93279  0.13196  0.81151  Biso   1.000  H
  H38      1.0000 0.06723  0.13196  0.68845  Biso   1.000  H
  H39      1.0000 0.43280  0.63196  0.81153  Biso   1.000  H
  H40      1.0000 0.56724  0.63196  0.68847  Biso   1.000  H
  C89      1.0000 0.02795  0.07705  0.98461  Biso   1.000  C
  C90      1.0000 0.97209  0.07704  0.51536  Biso   1.000  C
  C91      1.0000 0.52797  0.57705  0.98463  Biso   1.000  C
  C92      1.0000 0.47211  0.57704  0.51537  Biso   1.000  C
  C93      1.0000 0.97209  0.92296  0.01536  Biso   1.000  C
  C94      1.0000 0.02795  0.92295  0.48461  Biso   1.000  C
  C95      1.0000 0.47211  0.42296  0.01537  Biso   1.000  C
  C96      1.0000 0.52797  0.42295  0.48463  Biso   1.000  C
  H41      1.0000 0.05034  0.13975  0.97352  Biso   1.000  H
  H42      1.0000 0.94969  0.13975  0.52645  Biso   1.000  H
  H43      1.0000 0.55036  0.63975  0.97353  Biso   1.000  H
  H44      1.0000 0.44971  0.63974  0.52647  Biso   1.000  H
  H45      1.0000 0.94969  0.86025  0.02645  Biso   1.000  H
  H46      1.0000 0.05034  0.86025  0.47352  Biso   1.000  H
  H47      1.0000 0.44971  0.36026  0.02647  Biso   1.000  H
  H48      1.0000 0.55036  0.36025  0.47353  Biso   1.000  H
  C97      1.0000 0.94246  0.98521  0.07070  Biso   1.000  C
  C98      1.0000 0.05758  0.98521  0.42927  Biso   1.000  C
  C99      1.0000 0.44248  0.48522  0.07072  Biso   1.000  C
  C100     1.0000 0.55760  0.48520  0.42929  Biso   1.000  C
  C101     1.0000 0.05758  0.01479  0.92927  Biso   1.000  C
  C102     1.0000 0.94246  0.01479  0.57070  Biso   1.000  C
  C103     1.0000 0.55760  0.51480  0.92929  Biso   1.000  C
  C104     1.0000 0.44248  0.51478  0.57072  Biso   1.000  C
  H49      1.0000 0.89431  0.97359  0.12740  Biso   1.000  H
  H50      1.0000 0.10573  0.97358  0.37257  Biso   1.000  H
  H51      1.0000 0.39433  0.47359  0.12742  Biso   1.000  H
  H52      1.0000 0.60575  0.47358  0.37258  Biso   1.000  H
  H53      1.0000 0.10573  0.02642  0.87257  Biso   1.000  H
  H54      1.0000 0.89431  0.02641  0.62740  Biso   1.000  H
  H55      1.0000 0.60575  0.52642  0.87258  Biso   1.000  H
  H56      1.0000 0.39433  0.52641  0.62742  Biso   1.000  H
