data_image0
_cell_length_a       21.8767
_cell_length_b       21.8782
_cell_length_c       38.3905
_cell_angle_alpha    90
_cell_angle_beta     90
_cell_angle_gamma    90.0059

_symmetry_space_group_name_H-M    "P 1"
_symmetry_int_tables_number       1

loop_
  _symmetry_equiv_pos_as_xyz
  'x, y, z'

loop_
  _atom_site_label
  _atom_site_occupancy
  _atom_site_fract_x
  _atom_site_fract_y
  _atom_site_fract_z
  _atom_site_thermal_displace_type
  _atom_site_B_iso_or_equiv
  _atom_site_type_symbol
  Hf1      1.0000 0.49999  0.50000  0.06154  Biso   1.000  Hf
  Hf2      1.0000 0.00014  0.00003  0.56165  Biso   1.000  Hf
  Hf3      1.0000 0.49999  0.50000  0.93846  Biso   1.000  Hf
  Hf4      1.0000 0.00014  0.00003  0.43835  Biso   1.000  Hf
  Hf5      1.0000 0.39553  0.50040  1.00000  Biso   1.000  Hf
  Hf6      1.0000 0.49958  0.39554  0.00000  Biso   1.000  Hf
  Hf7      1.0000 0.60446  0.49959  0.00000  Biso   1.000  Hf
  Hf8      1.0000 0.50040  0.60446  1.00000  Biso   1.000  Hf
  Hf9      1.0000 0.89576  0.00158  0.50000  Biso   1.000  Hf
  Hf10     1.0000 0.99855  0.89567  0.50000  Biso   1.000  Hf
  Hf11     1.0000 0.10449  0.99847  0.50000  Biso   1.000  Hf
  Hf12     1.0000 0.00167  0.10439  0.50000  Biso   1.000  Hf
  O1       1.0000 0.40784  0.49937  0.08887  Biso   1.000  O
  O2       1.0000 0.50058  0.40787  0.08887  Biso   1.000  O
  O3       1.0000 0.59214  0.50061  0.08888  Biso   1.000  O
  O4       1.0000 0.49936  0.59217  0.08887  Biso   1.000  O
  O5       1.0000 0.90834  0.00052  0.58910  Biso   1.000  O
  O6       1.0000 0.99962  0.90823  0.58913  Biso   1.000  O
  O7       1.0000 0.09204  0.99954  0.58913  Biso   1.000  O
  O8       1.0000 0.00062  0.09186  0.58913  Biso   1.000  O
  O9       1.0000 0.59214  0.50061  0.91112  Biso   1.000  O
  O10      1.0000 0.49936  0.59217  0.91113  Biso   1.000  O
  O11      1.0000 0.40784  0.49937  0.91113  Biso   1.000  O
  O12      1.0000 0.50058  0.40787  0.91113  Biso   1.000  O
  O13      1.0000 0.09204  0.99954  0.41087  Biso   1.000  O
  O14      1.0000 0.00062  0.09186  0.41087  Biso   1.000  O
  O15      1.0000 0.90834  0.00052  0.41090  Biso   1.000  O
  O16      1.0000 0.99962  0.90823  0.41087  Biso   1.000  O
  O17      1.0000 0.33663  0.50125  0.04473  Biso   1.000  O
  O18      1.0000 0.49873  0.33665  0.04474  Biso   1.000  O
  O19      1.0000 0.66335  0.49874  0.04474  Biso   1.000  O
  O20      1.0000 0.50125  0.66336  0.04472  Biso   1.000  O
  O21      1.0000 0.83727  0.00277  0.54492  Biso   1.000  O
  O22      1.0000 0.99729  0.83721  0.54493  Biso   1.000  O
  O23      1.0000 0.16297  0.99726  0.54490  Biso   1.000  O
  O24      1.0000 0.00282  0.16286  0.54493  Biso   1.000  O
  O25      1.0000 0.66335  0.49874  0.95526  Biso   1.000  O
  O26      1.0000 0.50125  0.66336  0.95528  Biso   1.000  O
  O27      1.0000 0.33663  0.50125  0.95527  Biso   1.000  O
  O28      1.0000 0.49873  0.33665  0.95526  Biso   1.000  O
  O29      1.0000 0.16297  0.99726  0.45510  Biso   1.000  O
  O30      1.0000 0.00282  0.16286  0.45507  Biso   1.000  O
  O31      1.0000 0.83727  0.00277  0.45508  Biso   1.000  O
  O32      1.0000 0.99729  0.83721  0.45507  Biso   1.000  O
  O33      1.0000 0.44216  0.44256  0.03152  Biso   1.000  O
  O34      1.0000 0.55743  0.44217  0.03152  Biso   1.000  O
  O35      1.0000 0.55783  0.55744  0.03152  Biso   1.000  O
  O36      1.0000 0.44255  0.55782  0.03152  Biso   1.000  O
  O37      1.0000 0.94160  0.94328  0.53157  Biso   1.000  O
  O38      1.0000 0.05687  0.94151  0.53157  Biso   1.000  O
  O39      1.0000 0.05862  0.05677  0.53157  Biso   1.000  O
  O40      1.0000 0.94338  0.05853  0.53157  Biso   1.000  O
  O41      1.0000 0.55783  0.55744  0.96848  Biso   1.000  O
  O42      1.0000 0.44255  0.55782  0.96848  Biso   1.000  O
  O43      1.0000 0.44216  0.44256  0.96848  Biso   1.000  O
  O44      1.0000 0.55743  0.44217  0.96848  Biso   1.000  O
  O45      1.0000 0.05862  0.05677  0.46843  Biso   1.000  O
  O46      1.0000 0.94338  0.05853  0.46843  Biso   1.000  O
  O47      1.0000 0.94160  0.94328  0.46843  Biso   1.000  O
  O48      1.0000 0.05687  0.94151  0.46843  Biso   1.000  O
  C1       1.0000 1.00000  0.50008  0.25004  Biso   1.000  C
  C2       1.0000 0.50025  0.99999  0.25002  Biso   1.000  C
  C3       1.0000 0.50025  0.99999  0.74998  Biso   1.000  C
  C4       1.0000 1.00000  0.50008  0.74996  Biso   1.000  C
  C5       1.0000 0.05659  0.50050  0.22587  Biso   1.000  C
  C6       1.0000 0.49985  0.05658  0.22585  Biso   1.000  C
  C7       1.0000 0.94342  0.49969  0.22586  Biso   1.000  C
  C8       1.0000 0.50066  0.94342  0.22584  Biso   1.000  C
  C9       1.0000 0.55682  0.00039  0.72581  Biso   1.000  C
  C10      1.0000 0.99962  0.55665  0.72579  Biso   1.000  C
  C11      1.0000 0.44366  0.99960  0.72581  Biso   1.000  C
  C12      1.0000 0.00039  0.44348  0.72580  Biso   1.000  C
  C13      1.0000 0.94342  0.49969  0.77414  Biso   1.000  C
  C14      1.0000 0.50066  0.94342  0.77416  Biso   1.000  C
  C15      1.0000 0.05659  0.50050  0.77413  Biso   1.000  C
  C16      1.0000 0.49985  0.05658  0.77415  Biso   1.000  C
  C17      1.0000 0.44366  0.99960  0.27419  Biso   1.000  C
  C18      1.0000 0.00039  0.44348  0.27420  Biso   1.000  C
  C19      1.0000 0.55682  0.00039  0.27419  Biso   1.000  C
  C20      1.0000 0.99962  0.55665  0.27421  Biso   1.000  C
  C21      1.0000 0.15627  0.50280  0.17811  Biso   1.000  C
  C22      1.0000 0.49742  0.15630  0.17811  Biso   1.000  C
  C23      1.0000 0.84377  0.49737  0.17808  Biso   1.000  C
  C24      1.0000 0.50285  0.84378  0.17806  Biso   1.000  C
  C25      1.0000 0.65652  0.00282  0.67808  Biso   1.000  C
  C26      1.0000 0.99731  0.65635  0.67806  Biso   1.000  C
  C27      1.0000 0.34395  0.99727  0.67806  Biso   1.000  C
  C28      1.0000 0.00284  0.34374  0.67808  Biso   1.000  C
  C29      1.0000 0.84377  0.49737  0.82192  Biso   1.000  C
  C30      1.0000 0.50285  0.84378  0.82194  Biso   1.000  C
  C31      1.0000 0.15627  0.50280  0.82189  Biso   1.000  C
  C32      1.0000 0.49742  0.15630  0.82189  Biso   1.000  C
  C33      1.0000 0.34395  0.99727  0.32194  Biso   1.000  C
  C34      1.0000 0.00284  0.34374  0.32192  Biso   1.000  C
  C35      1.0000 0.65652  0.00282  0.32192  Biso   1.000  C
  C36      1.0000 0.99731  0.65635  0.32194  Biso   1.000  C
  C37      1.0000 0.10612  0.46054  0.22957  Biso   1.000  C
  C38      1.0000 0.53977  0.10615  0.22955  Biso   1.000  C
  C39      1.0000 0.89389  0.53965  0.22955  Biso   1.000  C
  C40      1.0000 0.46065  0.89392  0.22954  Biso   1.000  C
  C41      1.0000 0.60638  0.96046  0.72951  Biso   1.000  C
  C42      1.0000 0.03959  0.60618  0.72949  Biso   1.000  C
  C43      1.0000 0.39412  0.03956  0.72951  Biso   1.000  C
  C44      1.0000 0.96046  0.39392  0.72950  Biso   1.000  C
  C45      1.0000 0.89389  0.53965  0.77045  Biso   1.000  C
  C46      1.0000 0.46065  0.89392  0.77046  Biso   1.000  C
  C47      1.0000 0.10612  0.46054  0.77043  Biso   1.000  C
  C48      1.0000 0.53977  0.10615  0.77045  Biso   1.000  C
  C49      1.0000 0.39412  0.03956  0.27049  Biso   1.000  C
  C50      1.0000 0.96046  0.39392  0.27050  Biso   1.000  C
  C51      1.0000 0.60638  0.96046  0.27049  Biso   1.000  C
  C52      1.0000 0.03959  0.60618  0.27051  Biso   1.000  C
  H1       1.0000 0.10620  0.42698  0.25042  Biso   1.000  H
  H2       1.0000 0.57337  0.10625  0.25039  Biso   1.000  H
  H3       1.0000 0.89380  0.57323  0.25039  Biso   1.000  H
  H4       1.0000 0.42710  0.89385  0.25039  Biso   1.000  H
  H5       1.0000 0.60647  0.92688  0.75035  Biso   1.000  H
  H6       1.0000 0.07315  0.60624  0.75034  Biso   1.000  H
  H7       1.0000 0.39405  0.07312  0.75036  Biso   1.000  H
  H8       1.0000 0.92687  0.39383  0.75034  Biso   1.000  H
  H9       1.0000 0.89380  0.57323  0.74961  Biso   1.000  H
  H10      1.0000 0.42710  0.89385  0.74961  Biso   1.000  H
  H11      1.0000 0.10620  0.42698  0.74958  Biso   1.000  H
  H12      1.0000 0.57337  0.10625  0.74961  Biso   1.000  H
  H13      1.0000 0.39405  0.07312  0.24964  Biso   1.000  H
  H14      1.0000 0.92687  0.39383  0.24966  Biso   1.000  H
  H15      1.0000 0.60647  0.92688  0.24965  Biso   1.000  H
  H16      1.0000 0.07315  0.60624  0.24966  Biso   1.000  H
  C53      1.0000 0.15515  0.46179  0.20621  Biso   1.000  C
  C54      1.0000 0.53845  0.15520  0.20620  Biso   1.000  C
  C55      1.0000 0.84487  0.53839  0.20618  Biso   1.000  C
  C56      1.0000 0.46185  0.84491  0.20616  Biso   1.000  C
  C57      1.0000 0.65543  0.96178  0.70616  Biso   1.000  C
  C58      1.0000 0.03833  0.65523  0.70615  Biso   1.000  C
  C59      1.0000 0.34507  0.03829  0.70615  Biso   1.000  C
  C60      1.0000 0.96179  0.34485  0.70616  Biso   1.000  C
  C61      1.0000 0.84487  0.53839  0.79382  Biso   1.000  C
  C62      1.0000 0.46185  0.84491  0.79384  Biso   1.000  C
  C63      1.0000 0.15515  0.46179  0.79379  Biso   1.000  C
  C64      1.0000 0.53845  0.15520  0.79380  Biso   1.000  C
  C65      1.0000 0.34507  0.03829  0.29385  Biso   1.000  C
  C66      1.0000 0.96179  0.34485  0.29384  Biso   1.000  C
  C67      1.0000 0.65543  0.96178  0.29384  Biso   1.000  C
  C68      1.0000 0.03833  0.65523  0.29385  Biso   1.000  C
  H17      1.0000 0.19215  0.42898  0.20921  Biso   1.000  H
  H18      1.0000 0.57123  0.19224  0.20921  Biso   1.000  H
  H19      1.0000 0.80786  0.57118  0.20918  Biso   1.000  H
  H20      1.0000 0.42900  0.80793  0.20916  Biso   1.000  H
  H21      1.0000 0.69247  0.92901  0.70918  Biso   1.000  H
  H22      1.0000 0.07113  0.69224  0.70918  Biso   1.000  H
  H23      1.0000 0.30807  0.07109  0.70918  Biso   1.000  H
  H24      1.0000 0.92902  0.30781  0.70919  Biso   1.000  H
  H25      1.0000 0.80786  0.57118  0.79082  Biso   1.000  H
  H26      1.0000 0.42900  0.80793  0.79084  Biso   1.000  H
  H27      1.0000 0.19215  0.42898  0.79079  Biso   1.000  H
  H28      1.0000 0.57123  0.19224  0.79079  Biso   1.000  H
  H29      1.0000 0.30807  0.07109  0.29082  Biso   1.000  H
  H30      1.0000 0.92902  0.30781  0.29081  Biso   1.000  H
  H31      1.0000 0.69247  0.92901  0.29082  Biso   1.000  H
  H32      1.0000 0.07113  0.69224  0.29082  Biso   1.000  H
  C69      1.0000 0.10662  0.54326  0.17452  Biso   1.000  C
  C70      1.0000 0.45703  0.10659  0.17451  Biso   1.000  C
  C71      1.0000 0.89345  0.45694  0.17450  Biso   1.000  C
  C72      1.0000 0.54336  0.89341  0.17448  Biso   1.000  C
  C73      1.0000 0.60677  0.04315  0.67445  Biso   1.000  C
  C74      1.0000 0.95692  0.60664  0.67443  Biso   1.000  C
  C75      1.0000 0.39365  0.95686  0.67445  Biso   1.000  C
  C76      1.0000 0.04318  0.39349  0.67446  Biso   1.000  C
  C77      1.0000 0.89345  0.45694  0.82550  Biso   1.000  C
  C78      1.0000 0.54336  0.89341  0.82552  Biso   1.000  C
  C79      1.0000 0.10662  0.54326  0.82548  Biso   1.000  C
  C80      1.0000 0.45703  0.10659  0.82549  Biso   1.000  C
  C81      1.0000 0.39365  0.95686  0.32555  Biso   1.000  C
  C82      1.0000 0.04318  0.39349  0.32554  Biso   1.000  C
  C83      1.0000 0.60677  0.04315  0.32555  Biso   1.000  C
  C84      1.0000 0.95692  0.60664  0.32557  Biso   1.000  C
  H33      1.0000 0.10660  0.57633  0.15336  Biso   1.000  H
  H34      1.0000 0.42396  0.10653  0.15335  Biso   1.000  H
  H35      1.0000 0.89351  0.42389  0.15332  Biso   1.000  H
  H36      1.0000 0.57641  0.89343  0.15331  Biso   1.000  H
  H37      1.0000 0.60669  0.07617  0.65326  Biso   1.000  H
  H38      1.0000 0.92390  0.60660  0.65323  Biso   1.000  H
  H39      1.0000 0.39369  0.92381  0.65328  Biso   1.000  H
  H40      1.0000 0.07624  0.39356  0.65328  Biso   1.000  H
  H41      1.0000 0.89351  0.42389  0.84668  Biso   1.000  H
  H42      1.0000 0.57641  0.89343  0.84669  Biso   1.000  H
  H43      1.0000 0.10660  0.57633  0.84664  Biso   1.000  H
  H44      1.0000 0.42396  0.10653  0.84665  Biso   1.000  H
  H45      1.0000 0.39369  0.92381  0.34672  Biso   1.000  H
  H46      1.0000 0.07624  0.39356  0.34672  Biso   1.000  H
  H47      1.0000 0.60669  0.07617  0.34674  Biso   1.000  H
  H48      1.0000 0.92390  0.60660  0.34677  Biso   1.000  H
  C85      1.0000 0.05797  0.54197  0.19785  Biso   1.000  C
  C86      1.0000 0.45839  0.05792  0.19782  Biso   1.000  C
  C87      1.0000 0.94209  0.45824  0.19783  Biso   1.000  C
  C88      1.0000 0.54212  0.94204  0.19782  Biso   1.000  C
  C89      1.0000 0.55811  0.04180  0.69776  Biso   1.000  C
  C90      1.0000 0.95821  0.55798  0.69774  Biso   1.000  C
  C91      1.0000 0.44230  0.95816  0.69777  Biso   1.000  C
  C92      1.0000 0.04182  0.44216  0.69776  Biso   1.000  C
  C93      1.0000 0.94209  0.45824  0.80217  Biso   1.000  C
  C94      1.0000 0.54212  0.94204  0.80218  Biso   1.000  C
  C95      1.0000 0.05797  0.54197  0.80215  Biso   1.000  C
  C96      1.0000 0.45839  0.05792  0.80218  Biso   1.000  C
  C97      1.0000 0.44230  0.95816  0.30223  Biso   1.000  C
  C98      1.0000 0.04182  0.44216  0.30224  Biso   1.000  C
  C99      1.0000 0.55811  0.04180  0.30224  Biso   1.000  C
  C100     1.0000 0.95821  0.55798  0.30226  Biso   1.000  C
  H49      1.0000 0.01979  0.57317  0.19414  Biso   1.000  H
  H50      1.0000 0.42726  0.01969  0.19410  Biso   1.000  H
  H51      1.0000 0.98029  0.42708  0.19413  Biso   1.000  H
  H52      1.0000 0.57335  0.98021  0.19412  Biso   1.000  H
  H53      1.0000 0.51987  0.07290  0.69402  Biso   1.000  H
  H54      1.0000 0.92705  0.51978  0.69400  Biso   1.000  H
  H55      1.0000 0.48050  0.92699  0.69405  Biso   1.000  H
  H56      1.0000 0.07294  0.48040  0.69402  Biso   1.000  H
  H57      1.0000 0.98029  0.42708  0.80587  Biso   1.000  H
  H58      1.0000 0.57335  0.98021  0.80588  Biso   1.000  H
  H59      1.0000 0.01979  0.57317  0.80586  Biso   1.000  H
  H60      1.0000 0.42726  0.01969  0.80590  Biso   1.000  H
  H61      1.0000 0.48050  0.92699  0.30595  Biso   1.000  H
  H62      1.0000 0.07294  0.48040  0.30598  Biso   1.000  H
  H63      1.0000 0.51987  0.07290  0.30598  Biso   1.000  H
  H64      1.0000 0.92705  0.51978  0.30600  Biso   1.000  H
  C101     1.0000 0.20685  0.50263  0.15260  Biso   1.000  C
  C102     1.0000 0.49752  0.20690  0.15262  Biso   1.000  C
  C103     1.0000 0.79318  0.49751  0.15258  Biso   1.000  C
  C104     1.0000 0.50265  0.79321  0.15255  Biso   1.000  C
  C105     1.0000 0.70718  0.00291  0.65263  Biso   1.000  C
  C106     1.0000 0.99726  0.70702  0.65261  Biso   1.000  C
  C107     1.0000 0.29329  0.99724  0.65260  Biso   1.000  C
  C108     1.0000 0.00294  0.29307  0.65263  Biso   1.000  C
  C109     1.0000 0.79318  0.49751  0.84742  Biso   1.000  C
  C110     1.0000 0.50265  0.79321  0.84745  Biso   1.000  C
  C111     1.0000 0.20685  0.50263  0.84740  Biso   1.000  C
  C112     1.0000 0.49752  0.20690  0.84738  Biso   1.000  C
  C113     1.0000 0.29329  0.99724  0.34740  Biso   1.000  C
  C114     1.0000 0.00294  0.29307  0.34737  Biso   1.000  C
  C115     1.0000 0.70718  0.00291  0.34737  Biso   1.000  C
  C116     1.0000 0.99726  0.70702  0.34739  Biso   1.000  C
  C117     1.0000 0.26780  0.49306  0.16311  Biso   1.000  C
  C118     1.0000 0.50706  0.26786  0.16313  Biso   1.000  C
  C119     1.0000 0.73223  0.50707  0.16311  Biso   1.000  C
  C120     1.0000 0.49306  0.73227  0.16309  Biso   1.000  C
  C121     1.0000 0.76811  0.99339  0.66319  Biso   1.000  C
  C122     1.0000 0.00677  0.76794  0.66318  Biso   1.000  C
  C123     1.0000 0.23235  0.00673  0.66316  Biso   1.000  C
  C124     1.0000 0.99345  0.23213  0.66319  Biso   1.000  C
  C125     1.0000 0.73223  0.50707  0.83689  Biso   1.000  C
  C126     1.0000 0.49306  0.73227  0.83691  Biso   1.000  C
  C127     1.0000 0.26780  0.49306  0.83689  Biso   1.000  C
  C128     1.0000 0.50706  0.26786  0.83687  Biso   1.000  C
  C129     1.0000 0.23235  0.00673  0.33684  Biso   1.000  C
  C130     1.0000 0.99345  0.23213  0.33681  Biso   1.000  C
  C131     1.0000 0.76811  0.99339  0.33681  Biso   1.000  C
  C132     1.0000 0.00677  0.76794  0.33682  Biso   1.000  C
  H65      1.0000 0.27788  0.48698  0.19065  Biso   1.000  H
  H66      1.0000 0.51315  0.27795  0.19066  Biso   1.000  H
  H67      1.0000 0.72217  0.51317  0.19064  Biso   1.000  H
  H68      1.0000 0.48696  0.72222  0.19062  Biso   1.000  H
  H69      1.0000 0.77812  0.98709  0.69071  Biso   1.000  H
  H70      1.0000 0.01305  0.77793  0.69071  Biso   1.000  H
  H71      1.0000 0.22235  0.01301  0.69068  Biso   1.000  H
  H72      1.0000 0.98714  0.22212  0.69072  Biso   1.000  H
  H73      1.0000 0.72217  0.51317  0.80936  Biso   1.000  H
  H74      1.0000 0.48696  0.72222  0.80938  Biso   1.000  H
  H75      1.0000 0.27788  0.48698  0.80935  Biso   1.000  H
  H76      1.0000 0.51315  0.27795  0.80934  Biso   1.000  H
  H77      1.0000 0.22235  0.01301  0.30932  Biso   1.000  H
  H78      1.0000 0.98714  0.22212  0.30928  Biso   1.000  H
  H79      1.0000 0.77812  0.98709  0.30929  Biso   1.000  H
  H80      1.0000 0.01305  0.77793  0.30929  Biso   1.000  H
  C133     1.0000 0.31515  0.49278  0.13888  Biso   1.000  C
  C134     1.0000 0.50729  0.31521  0.13890  Biso   1.000  C
  C135     1.0000 0.68486  0.50731  0.13889  Biso   1.000  C
  C136     1.0000 0.49277  0.68490  0.13887  Biso   1.000  C
  C137     1.0000 0.81555  0.99345  0.63901  Biso   1.000  C
  C138     1.0000 0.00671  0.81539  0.63902  Biso   1.000  C
  C139     1.0000 0.18491  0.00666  0.63898  Biso   1.000  C
  C140     1.0000 0.99353  0.18469  0.63901  Biso   1.000  C
  C141     1.0000 0.68486  0.50731  0.86111  Biso   1.000  C
  C142     1.0000 0.49277  0.68490  0.86113  Biso   1.000  C
  C143     1.0000 0.31515  0.49278  0.86112  Biso   1.000  C
  C144     1.0000 0.50729  0.31521  0.86110  Biso   1.000  C
  C145     1.0000 0.18491  0.00666  0.36102  Biso   1.000  C
  C146     1.0000 0.99353  0.18469  0.36099  Biso   1.000  C
  C147     1.0000 0.81555  0.99345  0.36099  Biso   1.000  C
  C148     1.0000 0.00671  0.81539  0.36098  Biso   1.000  C
  H81      1.0000 0.36233  0.48607  0.14693  Biso   1.000  H
  H82      1.0000 0.51401  0.36238  0.14694  Biso   1.000  H
  H83      1.0000 0.63769  0.51405  0.14695  Biso   1.000  H
  H84      1.0000 0.48604  0.63773  0.14694  Biso   1.000  H
  H85      1.0000 0.86272  0.98676  0.64708  Biso   1.000  H
  H86      1.0000 0.01338  0.86256  0.64710  Biso   1.000  H
  H87      1.0000 0.13774  0.01332  0.64706  Biso   1.000  H
  H88      1.0000 0.98686  0.13752  0.64709  Biso   1.000  H
  H89      1.0000 0.63769  0.51405  0.85305  Biso   1.000  H
  H90      1.0000 0.48604  0.63773  0.85306  Biso   1.000  H
  H91      1.0000 0.36233  0.48607  0.85307  Biso   1.000  H
  H92      1.0000 0.51401  0.36238  0.85306  Biso   1.000  H
  H93      1.0000 0.13774  0.01332  0.35294  Biso   1.000  H
  H94      1.0000 0.98686  0.13752  0.35291  Biso   1.000  H
  H95      1.0000 0.86272  0.98676  0.35292  Biso   1.000  H
  H96      1.0000 0.01338  0.86256  0.35290  Biso   1.000  H
  C149     1.0000 0.30273  0.50127  0.10333  Biso   1.000  C
  C150     1.0000 0.49876  0.30278  0.10335  Biso   1.000  C
  C151     1.0000 0.69726  0.49876  0.10333  Biso   1.000  C
  C152     1.0000 0.50127  0.69729  0.10331  Biso   1.000  C
  C153     1.0000 0.80321  0.00228  0.60347  Biso   1.000  C
  C154     1.0000 0.99790  0.80308  0.60347  Biso   1.000  C
  C155     1.0000 0.19722  0.99786  0.60344  Biso   1.000  C
  C156     1.0000 0.00234  0.19701  0.60347  Biso   1.000  C
  C157     1.0000 0.69726  0.49876  0.89667  Biso   1.000  C
  C158     1.0000 0.50127  0.69729  0.89669  Biso   1.000  C
  C159     1.0000 0.30273  0.50127  0.89667  Biso   1.000  C
  C160     1.0000 0.49876  0.30278  0.89665  Biso   1.000  C
  C161     1.0000 0.19722  0.99786  0.39656  Biso   1.000  C
  C162     1.0000 0.00234  0.19701  0.39653  Biso   1.000  C
  C163     1.0000 0.80321  0.00228  0.39653  Biso   1.000  C
  C164     1.0000 0.99790  0.80308  0.39653  Biso   1.000  C
  C165     1.0000 0.24210  0.51046  0.09257  Biso   1.000  C
  C166     1.0000 0.48961  0.24214  0.09260  Biso   1.000  C
  C167     1.0000 0.75789  0.48958  0.09257  Biso   1.000  C
  C168     1.0000 0.51049  0.75791  0.09254  Biso   1.000  C
  C169     1.0000 0.74260  0.01146  0.59268  Biso   1.000  C
  C170     1.0000 0.98876  0.74248  0.59266  Biso   1.000  C
  C171     1.0000 0.25784  0.98875  0.59263  Biso   1.000  C
  C172     1.0000 0.01149  0.25762  0.59268  Biso   1.000  C
  C173     1.0000 0.75789  0.48958  0.90743  Biso   1.000  C
  C174     1.0000 0.51049  0.75791  0.90746  Biso   1.000  C
  C175     1.0000 0.24210  0.51046  0.90743  Biso   1.000  C
  C176     1.0000 0.48961  0.24214  0.90740  Biso   1.000  C
  C177     1.0000 0.25784  0.98875  0.40737  Biso   1.000  C
  C178     1.0000 0.01149  0.25762  0.40732  Biso   1.000  C
  C179     1.0000 0.74260  0.01146  0.40732  Biso   1.000  C
  C180     1.0000 0.98876  0.74248  0.40734  Biso   1.000  C
  H97      1.0000 0.23281  0.51643  0.06497  Biso   1.000  H
  H98      1.0000 0.48361  0.23284  0.06500  Biso   1.000  H
  H99      1.0000 0.76715  0.48357  0.06497  Biso   1.000  H
  H100     1.0000 0.51647  0.76717  0.06494  Biso   1.000  H
  H101     1.0000 0.73341  0.01772  0.56509  Biso   1.000  H
  H102     1.0000 0.98252  0.73330  0.56507  Biso   1.000  H
  H103     1.0000 0.26704  0.98253  0.56504  Biso   1.000  H
  H104     1.0000 0.01774  0.26682  0.56508  Biso   1.000  H
  H105     1.0000 0.76715  0.48357  0.93503  Biso   1.000  H
  H106     1.0000 0.51647  0.76717  0.93506  Biso   1.000  H
  H107     1.0000 0.23281  0.51643  0.93503  Biso   1.000  H
  H108     1.0000 0.48361  0.23284  0.93500  Biso   1.000  H
  H109     1.0000 0.26704  0.98253  0.43496  Biso   1.000  H
  H110     1.0000 0.01774  0.26682  0.43492  Biso   1.000  H
  H111     1.0000 0.73341  0.01772  0.43491  Biso   1.000  H
  H112     1.0000 0.98252  0.73330  0.43493  Biso   1.000  H
  C181     1.0000 0.19496  0.51154  0.11690  Biso   1.000  C
  C182     1.0000 0.48860  0.19500  0.11692  Biso   1.000  C
  C183     1.0000 0.80504  0.48856  0.11689  Biso   1.000  C
  C184     1.0000 0.51158  0.80506  0.11685  Biso   1.000  C
  C185     1.0000 0.69539  0.01216  0.61695  Biso   1.000  C
  C186     1.0000 0.98805  0.69525  0.61692  Biso   1.000  C
  C187     1.0000 0.30507  0.98805  0.61690  Biso   1.000  C
  C188     1.0000 0.01218  0.30484  0.61695  Biso   1.000  C
  C189     1.0000 0.80504  0.48856  0.88311  Biso   1.000  C
  C190     1.0000 0.51158  0.80506  0.88315  Biso   1.000  C
  C191     1.0000 0.19496  0.51154  0.88310  Biso   1.000  C
  C192     1.0000 0.48860  0.19500  0.88308  Biso   1.000  C
  C193     1.0000 0.30507  0.98805  0.38310  Biso   1.000  C
  C194     1.0000 0.01218  0.30484  0.38305  Biso   1.000  C
  C195     1.0000 0.69539  0.01216  0.38305  Biso   1.000  C
  C196     1.0000 0.98805  0.69525  0.38308  Biso   1.000  C
  H113     1.0000 0.14803  0.51789  0.10826  Biso   1.000  H
  H114     1.0000 0.48230  0.14807  0.10829  Biso   1.000  H
  H115     1.0000 0.85197  0.48225  0.10824  Biso   1.000  H
  H116     1.0000 0.51795  0.85198  0.10820  Biso   1.000  H
  H117     1.0000 0.64848  0.01850  0.60828  Biso   1.000  H
  H118     1.0000 0.98173  0.64834  0.60824  Biso   1.000  H
  H119     1.0000 0.35198  0.98174  0.60823  Biso   1.000  H
  H120     1.0000 0.01849  0.35175  0.60827  Biso   1.000  H
  H121     1.0000 0.85197  0.48225  0.89176  Biso   1.000  H
  H122     1.0000 0.51795  0.85198  0.89180  Biso   1.000  H
  H123     1.0000 0.14803  0.51789  0.89174  Biso   1.000  H
  H124     1.0000 0.48230  0.14807  0.89171  Biso   1.000  H
  H125     1.0000 0.35198  0.98174  0.39177  Biso   1.000  H
  H126     1.0000 0.01849  0.35175  0.39173  Biso   1.000  H
  H127     1.0000 0.64848  0.01850  0.39172  Biso   1.000  H
  H128     1.0000 0.98173  0.64834  0.39176  Biso   1.000  H
  C197     1.0000 0.35329  0.50056  0.07736  Biso   1.000  C
  C198     1.0000 0.49941  0.35332  0.07737  Biso   1.000  C
  C199     1.0000 0.64669  0.49943  0.07737  Biso   1.000  C
  C200     1.0000 0.50056  0.64671  0.07736  Biso   1.000  C
  C201     1.0000 0.85382  0.00182  0.57755  Biso   1.000  C
  C202     1.0000 0.99830  0.85372  0.57756  Biso   1.000  C
  C203     1.0000 0.14654  0.99826  0.57754  Biso   1.000  C
  C204     1.0000 0.00190  0.14637  0.57756  Biso   1.000  C
  C205     1.0000 0.64669  0.49943  0.92263  Biso   1.000  C
  C206     1.0000 0.50056  0.64671  0.92264  Biso   1.000  C
  C207     1.0000 0.35329  0.50056  0.92264  Biso   1.000  C
  C208     1.0000 0.49941  0.35332  0.92263  Biso   1.000  C
  C209     1.0000 0.14654  0.99826  0.42246  Biso   1.000  C
  C210     1.0000 0.00190  0.14637  0.42244  Biso   1.000  C
  C211     1.0000 0.85382  0.00182  0.42245  Biso   1.000  C
  C212     1.0000 0.99830  0.85372  0.42244  Biso   1.000  C
