data_image0
_cell_length_a       24.3431
_cell_length_b       24.3431
_cell_length_c       24.3431
_cell_angle_alpha    90
_cell_angle_beta     90
_cell_angle_gamma    90

_symmetry_space_group_name_H-M    "P 1"
_symmetry_int_tables_number       1

loop_
  _symmetry_equiv_pos_as_xyz
  'x, y, z'

loop_
  _atom_site_label
  _atom_site_occupancy
  _atom_site_fract_x
  _atom_site_fract_y
  _atom_site_fract_z
  _atom_site_thermal_displace_type
  _atom_site_B_iso_or_equiv
  _atom_site_type_symbol
  O1       1.0000 0.89480  0.10520  0.00000  Biso   1.000  O
  O2       1.0000 0.89480  0.60520  0.50000  Biso   1.000  O
  O3       1.0000 0.39480  0.60520  0.00000  Biso   1.000  O
  O4       1.0000 0.39480  0.10520  0.50000  Biso   1.000  O
  O5       1.0000 1.00000  0.89480  0.10520  Biso   1.000  O
  O6       1.0000 1.00000  0.39480  0.60520  Biso   1.000  O
  O7       1.0000 0.50000  0.39480  0.10520  Biso   1.000  O
  O8       1.0000 0.50000  0.89480  0.60520  Biso   1.000  O
  O9       1.0000 0.10520  0.00000  0.89480  Biso   1.000  O
  O10      1.0000 0.10520  0.50000  0.39480  Biso   1.000  O
  O11      1.0000 0.60520  0.50000  0.89480  Biso   1.000  O
  O12      1.0000 0.60520  0.00000  0.39480  Biso   1.000  O
  O13      1.0000 0.10520  0.35520  0.25000  Biso   1.000  O
  O14      1.0000 0.10520  0.85520  0.75000  Biso   1.000  O
  O15      1.0000 0.60520  0.85520  0.25000  Biso   1.000  O
  O16      1.0000 0.60520  0.35520  0.75000  Biso   1.000  O
  O17      1.0000 0.00000  0.14480  0.35520  Biso   1.000  O
  O18      1.0000 0.00000  0.64480  0.85520  Biso   1.000  O
  O19      1.0000 0.50000  0.64480  0.35520  Biso   1.000  O
  O20      1.0000 0.50000  0.14480  0.85520  Biso   1.000  O
  O21      1.0000 0.89480  0.25000  0.14480  Biso   1.000  O
  O22      1.0000 0.89480  0.75000  0.64480  Biso   1.000  O
  O23      1.0000 0.39480  0.75000  0.14480  Biso   1.000  O
  O24      1.0000 0.39480  0.25000  0.64480  Biso   1.000  O
  O25      1.0000 0.14480  0.89480  0.25000  Biso   1.000  O
  O26      1.0000 0.14480  0.39480  0.75000  Biso   1.000  O
  O27      1.0000 0.64480  0.39480  0.25000  Biso   1.000  O
  O28      1.0000 0.64480  0.89480  0.75000  Biso   1.000  O
  O29      1.0000 0.25000  0.10520  0.35520  Biso   1.000  O
  O30      1.0000 0.25000  0.60520  0.85520  Biso   1.000  O
  O31      1.0000 0.75000  0.60520  0.35520  Biso   1.000  O
  O32      1.0000 0.75000  0.10520  0.85520  Biso   1.000  O
  O33      1.0000 0.35520  1.00000  0.14480  Biso   1.000  O
  O34      1.0000 0.35520  0.50000  0.64480  Biso   1.000  O
  O35      1.0000 0.85520  0.50000  0.14480  Biso   1.000  O
  O36      1.0000 0.85520  1.00000  0.64480  Biso   1.000  O
  O37      1.0000 0.35520  0.64480  0.50000  Biso   1.000  O
  O38      1.0000 0.35520  0.14480  1.00000  Biso   1.000  O
  O39      1.0000 0.85520  0.14480  0.50000  Biso   1.000  O
  O40      1.0000 0.85520  0.64480  0.00000  Biso   1.000  O
  O41      1.0000 0.25000  0.85520  0.60520  Biso   1.000  O
  O42      1.0000 0.25000  0.35520  0.10520  Biso   1.000  O
  O43      1.0000 0.75000  0.35520  0.60520  Biso   1.000  O
  O44      1.0000 0.75000  0.85520  0.10520  Biso   1.000  O
  O45      1.0000 0.14480  0.75000  0.39480  Biso   1.000  O
  O46      1.0000 0.14480  0.25000  0.89480  Biso   1.000  O
  O47      1.0000 0.64480  0.25000  0.39480  Biso   1.000  O
  O48      1.0000 0.64480  0.75000  0.89480  Biso   1.000  O
  O49      1.0000 0.10520  0.89480  1.00000  Biso   1.000  O
  O50      1.0000 0.10520  0.39480  0.50000  Biso   1.000  O
  O51      1.0000 0.60520  0.39480  0.00000  Biso   1.000  O
  O52      1.0000 0.60520  0.89480  0.50000  Biso   1.000  O
  O53      1.0000 0.89480  1.00000  0.10520  Biso   1.000  O
  O54      1.0000 0.89480  0.50000  0.60520  Biso   1.000  O
  O55      1.0000 0.39480  0.50000  0.10520  Biso   1.000  O
  O56      1.0000 0.39480  1.00000  0.60520  Biso   1.000  O
  O57      1.0000 0.00000  0.10520  0.89480  Biso   1.000  O
  O58      1.0000 0.00000  0.60520  0.39480  Biso   1.000  O
  O59      1.0000 0.50000  0.60520  0.89480  Biso   1.000  O
  O60      1.0000 0.50000  0.10520  0.39480  Biso   1.000  O
  O61      1.0000 0.35520  0.10520  0.25000  Biso   1.000  O
  O62      1.0000 0.35520  0.60520  0.75000  Biso   1.000  O
  O63      1.0000 0.85520  0.60520  0.25000  Biso   1.000  O
  O64      1.0000 0.85520  0.10520  0.75000  Biso   1.000  O
  O65      1.0000 0.14480  0.00000  0.35520  Biso   1.000  O
  O66      1.0000 0.14480  0.50000  0.85520  Biso   1.000  O
  O67      1.0000 0.64480  0.50000  0.35520  Biso   1.000  O
  O68      1.0000 0.64480  0.00000  0.85520  Biso   1.000  O
  O69      1.0000 0.25000  0.89480  0.14480  Biso   1.000  O
  O70      1.0000 0.25000  0.39480  0.64480  Biso   1.000  O
  O71      1.0000 0.75000  0.39480  0.14480  Biso   1.000  O
  O72      1.0000 0.75000  0.89480  0.64480  Biso   1.000  O
  O73      1.0000 0.89480  0.14480  0.25000  Biso   1.000  O
  O74      1.0000 0.89480  0.64480  0.75000  Biso   1.000  O
  O75      1.0000 0.39480  0.64480  0.25000  Biso   1.000  O
  O76      1.0000 0.39480  0.14480  0.75000  Biso   1.000  O
  O77      1.0000 0.10520  0.25000  0.35520  Biso   1.000  O
  O78      1.0000 0.10520  0.75000  0.85520  Biso   1.000  O
  O79      1.0000 0.60520  0.75000  0.35520  Biso   1.000  O
  O80      1.0000 0.60520  0.25000  0.85520  Biso   1.000  O
  O81      1.0000 1.00000  0.35520  0.14480  Biso   1.000  O
  O82      1.0000 1.00000  0.85520  0.64480  Biso   1.000  O
  O83      1.0000 0.50000  0.85520  0.14480  Biso   1.000  O
  O84      1.0000 0.50000  0.35520  0.64480  Biso   1.000  O
  O85      1.0000 0.64480  0.35520  0.50000  Biso   1.000  O
  O86      1.0000 0.64480  0.85520  0.00000  Biso   1.000  O
  O87      1.0000 0.14480  0.85520  0.50000  Biso   1.000  O
  O88      1.0000 0.14480  0.35520  1.00000  Biso   1.000  O
  O89      1.0000 0.85520  0.25000  0.60520  Biso   1.000  O
  O90      1.0000 0.85520  0.75000  0.10520  Biso   1.000  O
  O91      1.0000 0.35520  0.75000  0.60520  Biso   1.000  O
  O92      1.0000 0.35520  0.25000  0.10520  Biso   1.000  O
  O93      1.0000 0.75000  0.14480  0.39480  Biso   1.000  O
  O94      1.0000 0.75000  0.64480  0.89480  Biso   1.000  O
  O95      1.0000 0.25000  0.64480  0.39480  Biso   1.000  O
  O96      1.0000 0.25000  0.14480  0.89480  Biso   1.000  O
  O97      1.0000 0.97007  0.07415  0.07415  Biso   1.000  O
  O98      1.0000 0.97007  0.57415  0.57415  Biso   1.000  O
  O99      1.0000 0.47007  0.57415  0.07415  Biso   1.000  O
  O100     1.0000 0.47007  0.07415  0.57415  Biso   1.000  O
  O101     1.0000 0.07415  0.97007  0.07415  Biso   1.000  O
  O102     1.0000 0.07415  0.47007  0.57415  Biso   1.000  O
  O103     1.0000 0.57415  0.47007  0.07415  Biso   1.000  O
  O104     1.0000 0.57415  0.97007  0.57415  Biso   1.000  O
  O105     1.0000 0.07415  0.07415  0.97007  Biso   1.000  O
  O106     1.0000 0.07415  0.57415  0.47007  Biso   1.000  O
  O107     1.0000 0.57415  0.57415  0.97007  Biso   1.000  O
  O108     1.0000 0.57415  0.07415  0.47007  Biso   1.000  O
  O109     1.0000 0.02993  0.32415  0.32415  Biso   1.000  O
  O110     1.0000 0.02993  0.82415  0.82415  Biso   1.000  O
  O111     1.0000 0.52993  0.82415  0.32415  Biso   1.000  O
  O112     1.0000 0.52993  0.32415  0.82415  Biso   1.000  O
  O113     1.0000 0.92585  0.22007  0.32415  Biso   1.000  O
  O114     1.0000 0.92585  0.72007  0.82415  Biso   1.000  O
  O115     1.0000 0.42585  0.72007  0.32415  Biso   1.000  O
  O116     1.0000 0.42585  0.22007  0.82415  Biso   1.000  O
  O117     1.0000 0.92585  0.32415  0.22007  Biso   1.000  O
  O118     1.0000 0.92585  0.82415  0.72007  Biso   1.000  O
  O119     1.0000 0.42585  0.82415  0.22007  Biso   1.000  O
  O120     1.0000 0.42585  0.32415  0.72007  Biso   1.000  O
  O121     1.0000 0.22007  0.92585  0.32415  Biso   1.000  O
  O122     1.0000 0.22007  0.42585  0.82415  Biso   1.000  O
  O123     1.0000 0.72007  0.42585  0.32415  Biso   1.000  O
  O124     1.0000 0.72007  0.92585  0.82415  Biso   1.000  O
  O125     1.0000 0.32415  0.02993  0.32415  Biso   1.000  O
  O126     1.0000 0.32415  0.52993  0.82415  Biso   1.000  O
  O127     1.0000 0.82415  0.52993  0.32415  Biso   1.000  O
  O128     1.0000 0.82415  0.02993  0.82415  Biso   1.000  O
  O129     1.0000 0.32415  0.92585  0.22007  Biso   1.000  O
  O130     1.0000 0.32415  0.42585  0.72007  Biso   1.000  O
  O131     1.0000 0.82415  0.42585  0.22007  Biso   1.000  O
  O132     1.0000 0.82415  0.92585  0.72007  Biso   1.000  O
  O133     1.0000 0.27993  0.67585  0.57415  Biso   1.000  O
  O134     1.0000 0.27993  0.17585  0.07415  Biso   1.000  O
  O135     1.0000 0.77993  0.17585  0.57415  Biso   1.000  O
  O136     1.0000 0.77993  0.67585  0.07415  Biso   1.000  O
  O137     1.0000 0.17585  0.77993  0.57415  Biso   1.000  O
  O138     1.0000 0.17585  0.27993  0.07415  Biso   1.000  O
  O139     1.0000 0.67585  0.27993  0.57415  Biso   1.000  O
  O140     1.0000 0.67585  0.77993  0.07415  Biso   1.000  O
  O141     1.0000 0.17585  0.67585  0.47007  Biso   1.000  O
  O142     1.0000 0.17585  0.17585  0.97007  Biso   1.000  O
  O143     1.0000 0.67585  0.17585  0.47007  Biso   1.000  O
  O144     1.0000 0.67585  0.67585  0.97007  Biso   1.000  O
  O145     1.0000 0.02993  0.92585  0.92585  Biso   1.000  O
  O146     1.0000 0.02993  0.42585  0.42585  Biso   1.000  O
  O147     1.0000 0.52993  0.42585  0.92585  Biso   1.000  O
  O148     1.0000 0.52993  0.92585  0.42585  Biso   1.000  O
  O149     1.0000 0.92585  0.02993  0.92585  Biso   1.000  O
  O150     1.0000 0.92585  0.52993  0.42585  Biso   1.000  O
  O151     1.0000 0.42585  0.52993  0.92585  Biso   1.000  O
  O152     1.0000 0.42585  0.02993  0.42585  Biso   1.000  O
  O153     1.0000 0.92585  0.92585  0.02993  Biso   1.000  O
  O154     1.0000 0.92585  0.42585  0.52993  Biso   1.000  O
  O155     1.0000 0.42585  0.42585  0.02993  Biso   1.000  O
  O156     1.0000 0.42585  0.92585  0.52993  Biso   1.000  O
  O157     1.0000 0.97007  0.67585  0.67585  Biso   1.000  O
  O158     1.0000 0.97007  0.17585  0.17585  Biso   1.000  O
  O159     1.0000 0.47007  0.17585  0.67585  Biso   1.000  O
  O160     1.0000 0.47007  0.67585  0.17585  Biso   1.000  O
  O161     1.0000 0.07415  0.77993  0.67585  Biso   1.000  O
  O162     1.0000 0.07415  0.27993  0.17585  Biso   1.000  O
  O163     1.0000 0.57415  0.27993  0.67585  Biso   1.000  O
  O164     1.0000 0.57415  0.77993  0.17585  Biso   1.000  O
  O165     1.0000 0.07415  0.67585  0.77993  Biso   1.000  O
  O166     1.0000 0.07415  0.17585  0.27993  Biso   1.000  O
  O167     1.0000 0.57415  0.17585  0.77993  Biso   1.000  O
  O168     1.0000 0.57415  0.67585  0.27993  Biso   1.000  O
  O169     1.0000 0.77993  0.07415  0.67585  Biso   1.000  O
  O170     1.0000 0.77993  0.57415  0.17585  Biso   1.000  O
  O171     1.0000 0.27993  0.57415  0.67585  Biso   1.000  O
  O172     1.0000 0.27993  0.07415  0.17585  Biso   1.000  O
  O173     1.0000 0.67585  0.97007  0.67585  Biso   1.000  O
  O174     1.0000 0.67585  0.47007  0.17585  Biso   1.000  O
  O175     1.0000 0.17585  0.47007  0.67585  Biso   1.000  O
  O176     1.0000 0.17585  0.97007  0.17585  Biso   1.000  O
  O177     1.0000 0.67585  0.07415  0.77993  Biso   1.000  O
  O178     1.0000 0.67585  0.57415  0.27993  Biso   1.000  O
  O179     1.0000 0.17585  0.57415  0.77993  Biso   1.000  O
  O180     1.0000 0.17585  0.07415  0.27993  Biso   1.000  O
  O181     1.0000 0.72007  0.32415  0.42585  Biso   1.000  O
  O182     1.0000 0.72007  0.82415  0.92585  Biso   1.000  O
  O183     1.0000 0.22007  0.82415  0.42585  Biso   1.000  O
  O184     1.0000 0.22007  0.32415  0.92585  Biso   1.000  O
  O185     1.0000 0.82415  0.22007  0.42585  Biso   1.000  O
  O186     1.0000 0.82415  0.72007  0.92585  Biso   1.000  O
  O187     1.0000 0.32415  0.72007  0.42585  Biso   1.000  O
  O188     1.0000 0.32415  0.22007  0.92585  Biso   1.000  O
  O189     1.0000 0.82415  0.32415  0.52993  Biso   1.000  O
  O190     1.0000 0.82415  0.82415  0.02993  Biso   1.000  O
  O191     1.0000 0.32415  0.82415  0.52993  Biso   1.000  O
  O192     1.0000 0.32415  0.32415  0.02993  Biso   1.000  O
  O193     1.0000 0.99753  0.14587  0.99753  Biso   1.000  O
  O194     1.0000 0.99753  0.64587  0.49753  Biso   1.000  O
  O195     1.0000 0.49753  0.64587  0.99753  Biso   1.000  O
  O196     1.0000 0.49753  0.14587  0.49753  Biso   1.000  O
  O197     1.0000 0.99753  0.99753  0.14587  Biso   1.000  O
  O198     1.0000 0.99753  0.49753  0.64587  Biso   1.000  O
  O199     1.0000 0.49753  0.49753  0.14587  Biso   1.000  O
  O200     1.0000 0.49753  0.99753  0.64587  Biso   1.000  O
  O201     1.0000 0.14587  0.99753  0.99753  Biso   1.000  O
  O202     1.0000 0.14587  0.49753  0.49753  Biso   1.000  O
  O203     1.0000 0.64587  0.49753  0.99753  Biso   1.000  O
  O204     1.0000 0.64587  0.99753  0.49753  Biso   1.000  O
  O205     1.0000 0.00247  0.39587  0.24753  Biso   1.000  O
  O206     1.0000 0.00247  0.89587  0.74753  Biso   1.000  O
  O207     1.0000 0.50247  0.89587  0.24753  Biso   1.000  O
  O208     1.0000 0.50247  0.39587  0.74753  Biso   1.000  O
  O209     1.0000 0.00247  0.24753  0.39587  Biso   1.000  O
  O210     1.0000 0.00247  0.74753  0.89587  Biso   1.000  O
  O211     1.0000 0.50247  0.74753  0.39587  Biso   1.000  O
  O212     1.0000 0.50247  0.24753  0.89587  Biso   1.000  O
  O213     1.0000 0.85413  0.24753  0.24753  Biso   1.000  O
  O214     1.0000 0.85413  0.74753  0.74753  Biso   1.000  O
  O215     1.0000 0.35413  0.74753  0.24753  Biso   1.000  O
  O216     1.0000 0.35413  0.24753  0.74753  Biso   1.000  O
  O217     1.0000 0.24753  0.85413  0.24753  Biso   1.000  O
  O218     1.0000 0.24753  0.35413  0.74753  Biso   1.000  O
  O219     1.0000 0.74753  0.35413  0.24753  Biso   1.000  O
  O220     1.0000 0.74753  0.85413  0.74753  Biso   1.000  O
  O221     1.0000 0.24753  0.00247  0.39587  Biso   1.000  O
  O222     1.0000 0.24753  0.50247  0.89587  Biso   1.000  O
  O223     1.0000 0.74753  0.50247  0.39587  Biso   1.000  O
  O224     1.0000 0.74753  0.00247  0.89587  Biso   1.000  O
  O225     1.0000 0.39587  0.00247  0.24753  Biso   1.000  O
  O226     1.0000 0.39587  0.50247  0.74753  Biso   1.000  O
  O227     1.0000 0.89587  0.50247  0.24753  Biso   1.000  O
  O228     1.0000 0.89587  0.00247  0.74753  Biso   1.000  O
  O229     1.0000 0.25247  0.60413  0.49753  Biso   1.000  O
  O230     1.0000 0.25247  0.10413  0.99753  Biso   1.000  O
  O231     1.0000 0.75247  0.10413  0.49753  Biso   1.000  O
  O232     1.0000 0.75247  0.60413  0.99753  Biso   1.000  O
  O233     1.0000 0.25247  0.75247  0.64587  Biso   1.000  O
  O234     1.0000 0.25247  0.25247  0.14587  Biso   1.000  O
  O235     1.0000 0.75247  0.25247  0.64587  Biso   1.000  O
  O236     1.0000 0.75247  0.75247  0.14587  Biso   1.000  O
  O237     1.0000 0.10413  0.75247  0.49753  Biso   1.000  O
  O238     1.0000 0.10413  0.25247  0.99753  Biso   1.000  O
  O239     1.0000 0.60413  0.25247  0.49753  Biso   1.000  O
  O240     1.0000 0.60413  0.75247  0.99753  Biso   1.000  O
  O241     1.0000 0.00247  0.85413  0.00247  Biso   1.000  O
  O242     1.0000 0.00247  0.35413  0.50247  Biso   1.000  O
  O243     1.0000 0.50247  0.35413  0.00247  Biso   1.000  O
  O244     1.0000 0.50247  0.85413  0.50247  Biso   1.000  O
  O245     1.0000 0.00247  0.00247  0.85413  Biso   1.000  O
  O246     1.0000 0.00247  0.50247  0.35413  Biso   1.000  O
  O247     1.0000 0.50247  0.50247  0.85413  Biso   1.000  O
  O248     1.0000 0.50247  0.00247  0.35413  Biso   1.000  O
  O249     1.0000 0.85413  0.00247  0.00247  Biso   1.000  O
  O250     1.0000 0.85413  0.50247  0.50247  Biso   1.000  O
  O251     1.0000 0.35413  0.50247  0.00247  Biso   1.000  O
  O252     1.0000 0.35413  0.00247  0.50247  Biso   1.000  O
  O253     1.0000 0.99753  0.60413  0.75247  Biso   1.000  O
  O254     1.0000 0.99753  0.10413  0.25247  Biso   1.000  O
  O255     1.0000 0.49753  0.10413  0.75247  Biso   1.000  O
  O256     1.0000 0.49753  0.60413  0.25247  Biso   1.000  O
  O257     1.0000 0.99753  0.75247  0.60413  Biso   1.000  O
  O258     1.0000 0.99753  0.25247  0.10413  Biso   1.000  O
  O259     1.0000 0.49753  0.25247  0.60413  Biso   1.000  O
  O260     1.0000 0.49753  0.75247  0.10413  Biso   1.000  O
  O261     1.0000 0.14587  0.75247  0.75247  Biso   1.000  O
  O262     1.0000 0.14587  0.25247  0.25247  Biso   1.000  O
  O263     1.0000 0.64587  0.25247  0.75247  Biso   1.000  O
  O264     1.0000 0.64587  0.75247  0.25247  Biso   1.000  O
  O265     1.0000 0.75247  0.14587  0.75247  Biso   1.000  O
  O266     1.0000 0.75247  0.64587  0.25247  Biso   1.000  O
  O267     1.0000 0.25247  0.64587  0.75247  Biso   1.000  O
  O268     1.0000 0.25247  0.14587  0.25247  Biso   1.000  O
  O269     1.0000 0.75247  0.99753  0.60413  Biso   1.000  O
  O270     1.0000 0.75247  0.49753  0.10413  Biso   1.000  O
  O271     1.0000 0.25247  0.49753  0.60413  Biso   1.000  O
  O272     1.0000 0.25247  0.99753  0.10413  Biso   1.000  O
  O273     1.0000 0.60413  0.99753  0.75247  Biso   1.000  O
  O274     1.0000 0.60413  0.49753  0.25247  Biso   1.000  O
  O275     1.0000 0.10413  0.49753  0.75247  Biso   1.000  O
  O276     1.0000 0.10413  0.99753  0.25247  Biso   1.000  O
  O277     1.0000 0.74753  0.39587  0.50247  Biso   1.000  O
  O278     1.0000 0.74753  0.89587  0.00247  Biso   1.000  O
  O279     1.0000 0.24753  0.89587  0.50247  Biso   1.000  O
  O280     1.0000 0.24753  0.39587  0.00247  Biso   1.000  O
  O281     1.0000 0.74753  0.24753  0.35413  Biso   1.000  O
  O282     1.0000 0.74753  0.74753  0.85413  Biso   1.000  O
  O283     1.0000 0.24753  0.74753  0.35413  Biso   1.000  O
  O284     1.0000 0.24753  0.24753  0.85413  Biso   1.000  O
  O285     1.0000 0.89587  0.24753  0.50247  Biso   1.000  O
  O286     1.0000 0.89587  0.74753  0.00247  Biso   1.000  O
  O287     1.0000 0.39587  0.74753  0.50247  Biso   1.000  O
  O288     1.0000 0.39587  0.24753  0.00247  Biso   1.000  O
  O289     1.0000 0.92622  0.17574  0.07426  Biso   1.000  O
  O290     1.0000 0.92622  0.67574  0.57426  Biso   1.000  O
  O291     1.0000 0.42622  0.67574  0.07426  Biso   1.000  O
  O292     1.0000 0.42622  0.17574  0.57426  Biso   1.000  O
  O293     1.0000 0.07426  0.92622  0.17574  Biso   1.000  O
  O294     1.0000 0.07426  0.42622  0.67574  Biso   1.000  O
  O295     1.0000 0.57426  0.42622  0.17574  Biso   1.000  O
  O296     1.0000 0.57426  0.92622  0.67574  Biso   1.000  O
  O297     1.0000 0.17574  0.07426  0.92622  Biso   1.000  O
  O298     1.0000 0.17574  0.57426  0.42622  Biso   1.000  O
  O299     1.0000 0.67574  0.57426  0.92622  Biso   1.000  O
  O300     1.0000 0.67574  0.07426  0.42622  Biso   1.000  O
  O301     1.0000 0.07378  0.42574  0.32426  Biso   1.000  O
  O302     1.0000 0.07378  0.92574  0.82426  Biso   1.000  O
  O303     1.0000 0.57378  0.92574  0.32426  Biso   1.000  O
  O304     1.0000 0.57378  0.42574  0.82426  Biso   1.000  O
  O305     1.0000 0.92574  0.17622  0.42574  Biso   1.000  O
  O306     1.0000 0.92574  0.67622  0.92574  Biso   1.000  O
  O307     1.0000 0.42574  0.67622  0.42574  Biso   1.000  O
  O308     1.0000 0.42574  0.17622  0.92574  Biso   1.000  O
  O309     1.0000 0.82426  0.32426  0.17622  Biso   1.000  O
  O310     1.0000 0.82426  0.82426  0.67622  Biso   1.000  O
  O311     1.0000 0.32426  0.82426  0.17622  Biso   1.000  O
  O312     1.0000 0.32426  0.32426  0.67622  Biso   1.000  O
  O313     1.0000 0.17622  0.82426  0.32426  Biso   1.000  O
  O314     1.0000 0.17622  0.32426  0.82426  Biso   1.000  O
  O315     1.0000 0.67622  0.32426  0.32426  Biso   1.000  O
  O316     1.0000 0.67622  0.82426  0.82426  Biso   1.000  O
  O317     1.0000 0.32426  0.07378  0.42574  Biso   1.000  O
  O318     1.0000 0.32426  0.57378  0.92574  Biso   1.000  O
  O319     1.0000 0.82426  0.57378  0.42574  Biso   1.000  O
  O320     1.0000 0.82426  0.07378  0.92574  Biso   1.000  O
  O321     1.0000 0.42574  0.92574  0.17622  Biso   1.000  O
  O322     1.0000 0.42574  0.42574  0.67622  Biso   1.000  O
  O323     1.0000 0.92574  0.42574  0.17622  Biso   1.000  O
  O324     1.0000 0.92574  0.92574  0.67622  Biso   1.000  O
  O325     1.0000 0.32378  0.57426  0.57426  Biso   1.000  O
  O326     1.0000 0.32378  0.07426  0.07426  Biso   1.000  O
  O327     1.0000 0.82378  0.07426  0.57426  Biso   1.000  O
  O328     1.0000 0.82378  0.57426  0.07426  Biso   1.000  O
  O329     1.0000 0.17574  0.82378  0.67574  Biso   1.000  O
  O330     1.0000 0.17574  0.32378  0.17574  Biso   1.000  O
  O331     1.0000 0.67574  0.32378  0.67574  Biso   1.000  O
  O332     1.0000 0.67574  0.82378  0.17574  Biso   1.000  O
  O333     1.0000 0.07426  0.67574  0.42622  Biso   1.000  O
  O334     1.0000 0.07426  0.17574  0.92622  Biso   1.000  O
  O335     1.0000 0.57426  0.17574  0.42622  Biso   1.000  O
  O336     1.0000 0.57426  0.67574  0.92622  Biso   1.000  O
  O337     1.0000 0.17574  0.92622  0.07426  Biso   1.000  O
  O338     1.0000 0.17574  0.42622  0.57426  Biso   1.000  O
  O339     1.0000 0.67574  0.42622  0.07426  Biso   1.000  O
  O340     1.0000 0.67574  0.92622  0.57426  Biso   1.000  O
  O341     1.0000 0.92622  0.07426  0.17574  Biso   1.000  O
  O342     1.0000 0.92622  0.57426  0.67574  Biso   1.000  O
  O343     1.0000 0.42622  0.57426  0.17574  Biso   1.000  O
  O344     1.0000 0.42622  0.07426  0.67574  Biso   1.000  O
  O345     1.0000 0.42574  0.07378  0.32426  Biso   1.000  O
  O346     1.0000 0.42574  0.57378  0.82426  Biso   1.000  O
  O347     1.0000 0.92574  0.57378  0.32426  Biso   1.000  O
  O348     1.0000 0.92574  0.07378  0.82426  Biso   1.000  O
  O349     1.0000 0.17622  0.92574  0.42574  Biso   1.000  O
  O350     1.0000 0.17622  0.42574  0.92574  Biso   1.000  O
  O351     1.0000 0.67622  0.42574  0.42574  Biso   1.000  O
  O352     1.0000 0.67622  0.92574  0.92574  Biso   1.000  O
  O353     1.0000 0.82426  0.17622  0.32426  Biso   1.000  O
  O354     1.0000 0.82426  0.67622  0.82426  Biso   1.000  O
  O355     1.0000 0.32426  0.67622  0.32426  Biso   1.000  O
  O356     1.0000 0.32426  0.17622  0.82426  Biso   1.000  O
  O357     1.0000 0.07378  0.32426  0.42574  Biso   1.000  O
  O358     1.0000 0.07378  0.82426  0.92574  Biso   1.000  O
  O359     1.0000 0.57378  0.82426  0.42574  Biso   1.000  O
  O360     1.0000 0.57378  0.32426  0.92574  Biso   1.000  O
  O361     1.0000 0.57426  0.32378  0.57426  Biso   1.000  O
  O362     1.0000 0.57426  0.82378  0.07426  Biso   1.000  O
  O363     1.0000 0.07426  0.82378  0.57426  Biso   1.000  O
  O364     1.0000 0.07426  0.32378  0.07426  Biso   1.000  O
  O365     1.0000 0.82378  0.17574  0.67574  Biso   1.000  O
  O366     1.0000 0.82378  0.67574  0.17574  Biso   1.000  O
  O367     1.0000 0.32378  0.67574  0.67574  Biso   1.000  O
  O368     1.0000 0.32378  0.17574  0.17574  Biso   1.000  O
  O369     1.0000 0.82426  0.92574  0.07378  Biso   1.000  O
  O370     1.0000 0.82426  0.42574  0.57378  Biso   1.000  O
  O371     1.0000 0.32426  0.42574  0.07378  Biso   1.000  O
  O372     1.0000 0.32426  0.92574  0.57378  Biso   1.000  O
  O373     1.0000 0.17574  0.67574  0.82378  Biso   1.000  O
  O374     1.0000 0.17574  0.17574  0.32378  Biso   1.000  O
  O375     1.0000 0.67574  0.17574  0.82378  Biso   1.000  O
  O376     1.0000 0.67574  0.67574  0.32378  Biso   1.000  O
  O377     1.0000 0.57426  0.07426  0.82378  Biso   1.000  O
  O378     1.0000 0.57426  0.57426  0.32378  Biso   1.000  O
  O379     1.0000 0.07426  0.57426  0.82378  Biso   1.000  O
  O380     1.0000 0.07426  0.07426  0.32378  Biso   1.000  O
  O381     1.0000 0.92574  0.32426  0.57378  Biso   1.000  O
  O382     1.0000 0.92574  0.82426  0.07378  Biso   1.000  O
  O383     1.0000 0.42574  0.82426  0.57378  Biso   1.000  O
  O384     1.0000 0.42574  0.32426  0.07378  Biso   1.000  O
  Si1      1.0000 0.94735  0.12500  0.03641  Biso   1.000  Si
  Si2      1.0000 0.94735  0.62500  0.53641  Biso   1.000  Si
  Si3      1.0000 0.44735  0.62500  0.03641  Biso   1.000  Si
  Si4      1.0000 0.44735  0.12500  0.53641  Biso   1.000  Si
  Si5      1.0000 0.03641  0.94735  0.12500  Biso   1.000  Si
  Si6      1.0000 0.03641  0.44735  0.62500  Biso   1.000  Si
  Si7      1.0000 0.53641  0.44735  0.12500  Biso   1.000  Si
  Si8      1.0000 0.53641  0.94735  0.62500  Biso   1.000  Si
  Si9      1.0000 0.12500  0.03641  0.94735  Biso   1.000  Si
  Si10     1.0000 0.12500  0.53641  0.44735  Biso   1.000  Si
  Si11     1.0000 0.62500  0.53641  0.94735  Biso   1.000  Si
  Si12     1.0000 0.62500  0.03641  0.44735  Biso   1.000  Si
  Si13     1.0000 0.05265  0.37500  0.28641  Biso   1.000  Si
  Si14     1.0000 0.05265  0.87500  0.78641  Biso   1.000  Si
  Si15     1.0000 0.55265  0.87500  0.28641  Biso   1.000  Si
  Si16     1.0000 0.55265  0.37500  0.78641  Biso   1.000  Si
  Si17     1.0000 0.96359  0.19735  0.37500  Biso   1.000  Si
  Si18     1.0000 0.96359  0.69735  0.87500  Biso   1.000  Si
  Si19     1.0000 0.46359  0.69735  0.37500  Biso   1.000  Si
  Si20     1.0000 0.46359  0.19735  0.87500  Biso   1.000  Si
  Si21     1.0000 0.87500  0.28641  0.19735  Biso   1.000  Si
  Si22     1.0000 0.87500  0.78641  0.69735  Biso   1.000  Si
  Si23     1.0000 0.37500  0.78641  0.19735  Biso   1.000  Si
  Si24     1.0000 0.37500  0.28641  0.69735  Biso   1.000  Si
  Si25     1.0000 0.19735  0.87500  0.28641  Biso   1.000  Si
  Si26     1.0000 0.19735  0.37500  0.78641  Biso   1.000  Si
  Si27     1.0000 0.69735  0.37500  0.28641  Biso   1.000  Si
  Si28     1.0000 0.69735  0.87500  0.78641  Biso   1.000  Si
  Si29     1.0000 0.28641  0.05265  0.37500  Biso   1.000  Si
  Si30     1.0000 0.28641  0.55265  0.87500  Biso   1.000  Si
  Si31     1.0000 0.78641  0.55265  0.37500  Biso   1.000  Si
  Si32     1.0000 0.78641  0.05265  0.87500  Biso   1.000  Si
  Si33     1.0000 0.37500  0.96359  0.19735  Biso   1.000  Si
  Si34     1.0000 0.37500  0.46359  0.69735  Biso   1.000  Si
  Si35     1.0000 0.87500  0.46359  0.19735  Biso   1.000  Si
  Si36     1.0000 0.87500  0.96359  0.69735  Biso   1.000  Si
  Si37     1.0000 0.30265  0.62500  0.53641  Biso   1.000  Si
  Si38     1.0000 0.30265  0.12500  0.03641  Biso   1.000  Si
  Si39     1.0000 0.80265  0.12500  0.53641  Biso   1.000  Si
  Si40     1.0000 0.80265  0.62500  0.03641  Biso   1.000  Si
  Si41     1.0000 0.21359  0.80265  0.62500  Biso   1.000  Si
  Si42     1.0000 0.21359  0.30265  0.12500  Biso   1.000  Si
  Si43     1.0000 0.71359  0.30265  0.62500  Biso   1.000  Si
  Si44     1.0000 0.71359  0.80265  0.12500  Biso   1.000  Si
  Si45     1.0000 0.12500  0.71359  0.44735  Biso   1.000  Si
  Si46     1.0000 0.12500  0.21359  0.94735  Biso   1.000  Si
  Si47     1.0000 0.62500  0.21359  0.44735  Biso   1.000  Si
  Si48     1.0000 0.62500  0.71359  0.94735  Biso   1.000  Si
  Si49     1.0000 0.12500  0.94735  0.03641  Biso   1.000  Si
  Si50     1.0000 0.12500  0.44735  0.53641  Biso   1.000  Si
  Si51     1.0000 0.62500  0.44735  0.03641  Biso   1.000  Si
  Si52     1.0000 0.62500  0.94735  0.53641  Biso   1.000  Si
  Si53     1.0000 0.94735  0.03641  0.12500  Biso   1.000  Si
  Si54     1.0000 0.94735  0.53641  0.62500  Biso   1.000  Si
  Si55     1.0000 0.44735  0.53641  0.12500  Biso   1.000  Si
  Si56     1.0000 0.44735  0.03641  0.62500  Biso   1.000  Si
  Si57     1.0000 0.03641  0.12500  0.94735  Biso   1.000  Si
  Si58     1.0000 0.03641  0.62500  0.44735  Biso   1.000  Si
  Si59     1.0000 0.53641  0.62500  0.94735  Biso   1.000  Si
  Si60     1.0000 0.53641  0.12500  0.44735  Biso   1.000  Si
  Si61     1.0000 0.37500  0.05265  0.28641  Biso   1.000  Si
  Si62     1.0000 0.37500  0.55265  0.78641  Biso   1.000  Si
  Si63     1.0000 0.87500  0.55265  0.28641  Biso   1.000  Si
  Si64     1.0000 0.87500  0.05265  0.78641  Biso   1.000  Si
  Si65     1.0000 0.19735  0.96359  0.37500  Biso   1.000  Si
  Si66     1.0000 0.19735  0.46359  0.87500  Biso   1.000  Si
  Si67     1.0000 0.69735  0.46359  0.37500  Biso   1.000  Si
  Si68     1.0000 0.69735  0.96359  0.87500  Biso   1.000  Si
  Si69     1.0000 0.28641  0.87500  0.19735  Biso   1.000  Si
  Si70     1.0000 0.28641  0.37500  0.69735  Biso   1.000  Si
  Si71     1.0000 0.78641  0.37500  0.19735  Biso   1.000  Si
  Si72     1.0000 0.78641  0.87500  0.69735  Biso   1.000  Si
  Si73     1.0000 0.87500  0.19735  0.28641  Biso   1.000  Si
  Si74     1.0000 0.87500  0.69735  0.78641  Biso   1.000  Si
  Si75     1.0000 0.37500  0.69735  0.28641  Biso   1.000  Si
  Si76     1.0000 0.37500  0.19735  0.78641  Biso   1.000  Si
  Si77     1.0000 0.05265  0.28641  0.37500  Biso   1.000  Si
  Si78     1.0000 0.05265  0.78641  0.87500  Biso   1.000  Si
  Si79     1.0000 0.55265  0.78641  0.37500  Biso   1.000  Si
  Si80     1.0000 0.55265  0.28641  0.87500  Biso   1.000  Si
  Si81     1.0000 0.96359  0.37500  0.19735  Biso   1.000  Si
  Si82     1.0000 0.96359  0.87500  0.69735  Biso   1.000  Si
  Si83     1.0000 0.46359  0.87500  0.19735  Biso   1.000  Si
  Si84     1.0000 0.46359  0.37500  0.69735  Biso   1.000  Si
  Si85     1.0000 0.62500  0.30265  0.53641  Biso   1.000  Si
  Si86     1.0000 0.62500  0.80265  0.03641  Biso   1.000  Si
  Si87     1.0000 0.12500  0.80265  0.53641  Biso   1.000  Si
  Si88     1.0000 0.12500  0.30265  0.03641  Biso   1.000  Si
  Si89     1.0000 0.80265  0.21359  0.62500  Biso   1.000  Si
  Si90     1.0000 0.80265  0.71359  0.12500  Biso   1.000  Si
  Si91     1.0000 0.30265  0.71359  0.62500  Biso   1.000  Si
  Si92     1.0000 0.30265  0.21359  0.12500  Biso   1.000  Si
  Si93     1.0000 0.71359  0.12500  0.44735  Biso   1.000  Si
  Si94     1.0000 0.71359  0.62500  0.94735  Biso   1.000  Si
  Si95     1.0000 0.21359  0.62500  0.44735  Biso   1.000  Si
  Si96     1.0000 0.21359  0.12500  0.94735  Biso   1.000  Si
  Si97     1.0000 0.05265  0.87500  0.96359  Biso   1.000  Si
  Si98     1.0000 0.05265  0.37500  0.46359  Biso   1.000  Si
  Si99     1.0000 0.55265  0.37500  0.96359  Biso   1.000  Si
  Si100    1.0000 0.55265  0.87500  0.46359  Biso   1.000  Si
  Si101    1.0000 0.96359  0.05265  0.87500  Biso   1.000  Si
  Si102    1.0000 0.96359  0.55265  0.37500  Biso   1.000  Si
  Si103    1.0000 0.46359  0.55265  0.87500  Biso   1.000  Si
  Si104    1.0000 0.46359  0.05265  0.37500  Biso   1.000  Si
  Si105    1.0000 0.87500  0.96359  0.05265  Biso   1.000  Si
  Si106    1.0000 0.87500  0.46359  0.55265  Biso   1.000  Si
  Si107    1.0000 0.37500  0.46359  0.05265  Biso   1.000  Si
  Si108    1.0000 0.37500  0.96359  0.55265  Biso   1.000  Si
  Si109    1.0000 0.94735  0.62500  0.71359  Biso   1.000  Si
  Si110    1.0000 0.94735  0.12500  0.21359  Biso   1.000  Si
  Si111    1.0000 0.44735  0.12500  0.71359  Biso   1.000  Si
  Si112    1.0000 0.44735  0.62500  0.21359  Biso   1.000  Si
  Si113    1.0000 0.03641  0.80265  0.62500  Biso   1.000  Si
  Si114    1.0000 0.03641  0.30265  0.12500  Biso   1.000  Si
  Si115    1.0000 0.53641  0.30265  0.62500  Biso   1.000  Si
  Si116    1.0000 0.53641  0.80265  0.12500  Biso   1.000  Si
  Si117    1.0000 0.12500  0.71359  0.80265  Biso   1.000  Si
  Si118    1.0000 0.12500  0.21359  0.30265  Biso   1.000  Si
  Si119    1.0000 0.62500  0.21359  0.80265  Biso   1.000  Si
  Si120    1.0000 0.62500  0.71359  0.30265  Biso   1.000  Si
  Si121    1.0000 0.80265  0.12500  0.71359  Biso   1.000  Si
  Si122    1.0000 0.80265  0.62500  0.21359  Biso   1.000  Si
  Si123    1.0000 0.30265  0.62500  0.71359  Biso   1.000  Si
  Si124    1.0000 0.30265  0.12500  0.21359  Biso   1.000  Si
  Si125    1.0000 0.71359  0.94735  0.62500  Biso   1.000  Si
  Si126    1.0000 0.71359  0.44735  0.12500  Biso   1.000  Si
  Si127    1.0000 0.21359  0.44735  0.62500  Biso   1.000  Si
  Si128    1.0000 0.21359  0.94735  0.12500  Biso   1.000  Si
  Si129    1.0000 0.62500  0.03641  0.80265  Biso   1.000  Si
  Si130    1.0000 0.62500  0.53641  0.30265  Biso   1.000  Si
  Si131    1.0000 0.12500  0.53641  0.80265  Biso   1.000  Si
  Si132    1.0000 0.12500  0.03641  0.30265  Biso   1.000  Si
  Si133    1.0000 0.69735  0.37500  0.46359  Biso   1.000  Si
  Si134    1.0000 0.69735  0.87500  0.96359  Biso   1.000  Si
  Si135    1.0000 0.19735  0.87500  0.46359  Biso   1.000  Si
  Si136    1.0000 0.19735  0.37500  0.96359  Biso   1.000  Si
  Si137    1.0000 0.78641  0.19735  0.37500  Biso   1.000  Si
  Si138    1.0000 0.78641  0.69735  0.87500  Biso   1.000  Si
  Si139    1.0000 0.28641  0.69735  0.37500  Biso   1.000  Si
  Si140    1.0000 0.28641  0.19735  0.87500  Biso   1.000  Si
  Si141    1.0000 0.87500  0.28641  0.55265  Biso   1.000  Si
  Si142    1.0000 0.87500  0.78641  0.05265  Biso   1.000  Si
  Si143    1.0000 0.37500  0.78641  0.55265  Biso   1.000  Si
  Si144    1.0000 0.37500  0.28641  0.05265  Biso   1.000  Si
  Si145    1.0000 0.87500  0.05265  0.96359  Biso   1.000  Si
  Si146    1.0000 0.87500  0.55265  0.46359  Biso   1.000  Si
  Si147    1.0000 0.37500  0.55265  0.96359  Biso   1.000  Si
  Si148    1.0000 0.37500  0.05265  0.46359  Biso   1.000  Si
  Si149    1.0000 0.05265  0.96359  0.87500  Biso   1.000  Si
  Si150    1.0000 0.05265  0.46359  0.37500  Biso   1.000  Si
  Si151    1.0000 0.55265  0.46359  0.87500  Biso   1.000  Si
  Si152    1.0000 0.55265  0.96359  0.37500  Biso   1.000  Si
  Si153    1.0000 0.96359  0.87500  0.05265  Biso   1.000  Si
  Si154    1.0000 0.96359  0.37500  0.55265  Biso   1.000  Si
  Si155    1.0000 0.46359  0.37500  0.05265  Biso   1.000  Si
  Si156    1.0000 0.46359  0.87500  0.55265  Biso   1.000  Si
  Si157    1.0000 0.62500  0.94735  0.71359  Biso   1.000  Si
  Si158    1.0000 0.62500  0.44735  0.21359  Biso   1.000  Si
  Si159    1.0000 0.12500  0.44735  0.71359  Biso   1.000  Si
  Si160    1.0000 0.12500  0.94735  0.21359  Biso   1.000  Si
  Si161    1.0000 0.80265  0.03641  0.62500  Biso   1.000  Si
  Si162    1.0000 0.80265  0.53641  0.12500  Biso   1.000  Si
  Si163    1.0000 0.30265  0.53641  0.62500  Biso   1.000  Si
  Si164    1.0000 0.30265  0.03641  0.12500  Biso   1.000  Si
  Si165    1.0000 0.71359  0.12500  0.80265  Biso   1.000  Si
  Si166    1.0000 0.71359  0.62500  0.30265  Biso   1.000  Si
  Si167    1.0000 0.21359  0.62500  0.80265  Biso   1.000  Si
  Si168    1.0000 0.21359  0.12500  0.30265  Biso   1.000  Si
  Si169    1.0000 0.12500  0.80265  0.71359  Biso   1.000  Si
  Si170    1.0000 0.12500  0.30265  0.21359  Biso   1.000  Si
  Si171    1.0000 0.62500  0.30265  0.71359  Biso   1.000  Si
  Si172    1.0000 0.62500  0.80265  0.21359  Biso   1.000  Si
  Si173    1.0000 0.94735  0.71359  0.62500  Biso   1.000  Si
  Si174    1.0000 0.94735  0.21359  0.12500  Biso   1.000  Si
  Si175    1.0000 0.44735  0.21359  0.62500  Biso   1.000  Si
  Si176    1.0000 0.44735  0.71359  0.12500  Biso   1.000  Si
  Si177    1.0000 0.03641  0.62500  0.80265  Biso   1.000  Si
  Si178    1.0000 0.03641  0.12500  0.30265  Biso   1.000  Si
  Si179    1.0000 0.53641  0.12500  0.80265  Biso   1.000  Si
  Si180    1.0000 0.53641  0.62500  0.30265  Biso   1.000  Si
  Si181    1.0000 0.37500  0.69735  0.46359  Biso   1.000  Si
  Si182    1.0000 0.37500  0.19735  0.96359  Biso   1.000  Si
  Si183    1.0000 0.87500  0.19735  0.46359  Biso   1.000  Si
  Si184    1.0000 0.87500  0.69735  0.96359  Biso   1.000  Si
  Si185    1.0000 0.19735  0.78641  0.37500  Biso   1.000  Si
  Si186    1.0000 0.19735  0.28641  0.87500  Biso   1.000  Si
  Si187    1.0000 0.69735  0.28641  0.37500  Biso   1.000  Si
  Si188    1.0000 0.69735  0.78641  0.87500  Biso   1.000  Si
  Si189    1.0000 0.28641  0.87500  0.55265  Biso   1.000  Si
  Si190    1.0000 0.28641  0.37500  0.05265  Biso   1.000  Si
  Si191    1.0000 0.78641  0.37500  0.55265  Biso   1.000  Si
  Si192    1.0000 0.78641  0.87500  0.05265  Biso   1.000  Si
