data_image0
_cell_length_a       21.6902
_cell_length_b       21.6902
_cell_length_c       38.9715
_cell_angle_alpha    90
_cell_angle_beta     90
_cell_angle_gamma    90

_symmetry_space_group_name_H-M    "P 1"
_symmetry_int_tables_number       1

loop_
  _symmetry_equiv_pos_as_xyz
  'x, y, z'

loop_
  _atom_site_label
  _atom_site_occupancy
  _atom_site_fract_x
  _atom_site_fract_y
  _atom_site_fract_z
  _atom_site_thermal_displace_type
  _atom_site_B_iso_or_equiv
  _atom_site_type_symbol
  Zr1      1.0000 0.50000  0.50000  0.06162  Biso   1.000  Zr
  Zr2      1.0000 1.00000  1.00000  0.56158  Biso   1.000  Zr
  Zr3      1.0000 0.50000  0.50000  0.93838  Biso   1.000  Zr
  Zr4      1.0000 1.00000  1.00000  0.43842  Biso   1.000  Zr
  Zr5      1.0000 0.51650  0.39439  0.00000  Biso   1.000  Zr
  Zr6      1.0000 0.60560  0.51650  0.00000  Biso   1.000  Zr
  Zr7      1.0000 0.48350  0.60560  0.00000  Biso   1.000  Zr
  Zr8      1.0000 0.39439  0.48350  0.00000  Biso   1.000  Zr
  Zr9      1.0000 0.01396  0.89409  0.50000  Biso   1.000  Zr
  Zr10     1.0000 0.10591  0.01396  0.50000  Biso   1.000  Zr
  Zr11     1.0000 0.98604  0.10591  0.50000  Biso   1.000  Zr
  Zr12     1.0000 0.89409  0.98604  0.50000  Biso   1.000  Zr
  O1       1.0000 0.51241  0.40748  0.08872  Biso   1.000  O
  O2       1.0000 0.59252  0.51241  0.08872  Biso   1.000  O
  O3       1.0000 0.48759  0.59252  0.08872  Biso   1.000  O
  O4       1.0000 0.40748  0.48759  0.08872  Biso   1.000  O
  O5       1.0000 0.01068  0.90676  0.58835  Biso   1.000  O
  O6       1.0000 0.09324  0.01068  0.58835  Biso   1.000  O
  O7       1.0000 0.98932  0.09324  0.58835  Biso   1.000  O
  O8       1.0000 0.90676  0.98932  0.58835  Biso   1.000  O
  O9       1.0000 0.48759  0.59252  0.91128  Biso   1.000  O
  O10      1.0000 0.40748  0.48759  0.91128  Biso   1.000  O
  O11      1.0000 0.51241  0.40748  0.91128  Biso   1.000  O
  O12      1.0000 0.59252  0.51241  0.91128  Biso   1.000  O
  O13      1.0000 0.98932  0.09324  0.41165  Biso   1.000  O
  O14      1.0000 0.90676  0.98932  0.41165  Biso   1.000  O
  O15      1.0000 0.01068  0.90676  0.41165  Biso   1.000  O
  O16      1.0000 0.09324  0.01068  0.41165  Biso   1.000  O
  O17      1.0000 0.52504  0.33609  0.04579  Biso   1.000  O
  O18      1.0000 0.66391  0.52504  0.04579  Biso   1.000  O
  O19      1.0000 0.47496  0.66391  0.04579  Biso   1.000  O
  O20      1.0000 0.33609  0.47496  0.04579  Biso   1.000  O
  O21      1.0000 0.02118  0.83504  0.54542  Biso   1.000  O
  O22      1.0000 0.16496  0.02118  0.54542  Biso   1.000  O
  O23      1.0000 0.97882  0.16496  0.54542  Biso   1.000  O
  O24      1.0000 0.83504  0.97882  0.54542  Biso   1.000  O
  O25      1.0000 0.47496  0.66391  0.95421  Biso   1.000  O
  O26      1.0000 0.33609  0.47496  0.95421  Biso   1.000  O
  O27      1.0000 0.52504  0.33609  0.95421  Biso   1.000  O
  O28      1.0000 0.66391  0.52504  0.95421  Biso   1.000  O
  O29      1.0000 0.97882  0.16496  0.45458  Biso   1.000  O
  O30      1.0000 0.83504  0.97882  0.45458  Biso   1.000  O
  O31      1.0000 0.02118  0.83504  0.45458  Biso   1.000  O
  O32      1.0000 0.16496  0.02118  0.45458  Biso   1.000  O
  O33      1.0000 0.56741  0.45077  0.96859  Biso   1.000  O
  O34      1.0000 0.54923  0.56741  0.96859  Biso   1.000  O
  O35      1.0000 0.43259  0.54922  0.96859  Biso   1.000  O
  O36      1.0000 0.45077  0.43259  0.96859  Biso   1.000  O
  O37      1.0000 0.06623  0.94919  0.46853  Biso   1.000  O
  O38      1.0000 0.05081  0.06623  0.46853  Biso   1.000  O
  O39      1.0000 0.93377  0.05081  0.46853  Biso   1.000  O
  O40      1.0000 0.94919  0.93377  0.46853  Biso   1.000  O
  O41      1.0000 0.43259  0.54922  0.03141  Biso   1.000  O
  O42      1.0000 0.45077  0.43259  0.03141  Biso   1.000  O
  O43      1.0000 0.56741  0.45077  0.03141  Biso   1.000  O
  O44      1.0000 0.54923  0.56741  0.03141  Biso   1.000  O
  O45      1.0000 0.93377  0.05081  0.53147  Biso   1.000  O
  O46      1.0000 0.94919  0.93377  0.53147  Biso   1.000  O
  O47      1.0000 0.06623  0.94919  0.53147  Biso   1.000  O
  O48      1.0000 0.05081  0.06623  0.53147  Biso   1.000  O
  C1       1.0000 0.51872  0.35258  0.07769  Biso   1.000  C
  C2       1.0000 0.64742  0.51872  0.07769  Biso   1.000  C
  C3       1.0000 0.48128  0.64742  0.07769  Biso   1.000  C
  C4       1.0000 0.35258  0.48128  0.07769  Biso   1.000  C
  C5       1.0000 0.01598  0.85175  0.57737  Biso   1.000  C
  C6       1.0000 0.14825  0.01598  0.57737  Biso   1.000  C
  C7       1.0000 0.98402  0.14824  0.57737  Biso   1.000  C
  C8       1.0000 0.85175  0.98402  0.57737  Biso   1.000  C
  C9       1.0000 0.48128  0.64742  0.92231  Biso   1.000  C
  C10      1.0000 0.35258  0.48128  0.92231  Biso   1.000  C
  C11      1.0000 0.51872  0.35258  0.92231  Biso   1.000  C
  C12      1.0000 0.64742  0.51872  0.92231  Biso   1.000  C
  C13      1.0000 0.98402  0.14824  0.42263  Biso   1.000  C
  C14      1.0000 0.85175  0.98402  0.42263  Biso   1.000  C
  C15      1.0000 0.01598  0.85175  0.42263  Biso   1.000  C
  C16      1.0000 0.14825  0.01598  0.42263  Biso   1.000  C
  C17      1.0000 0.52982  0.19398  0.11822  Biso   1.000  C
  C18      1.0000 0.80602  0.52982  0.11821  Biso   1.000  C
  C19      1.0000 0.47018  0.80602  0.11821  Biso   1.000  C
  C20      1.0000 0.19398  0.47018  0.11822  Biso   1.000  C
  C21      1.0000 0.02760  0.69332  0.61802  Biso   1.000  C
  C22      1.0000 0.30668  0.02761  0.61802  Biso   1.000  C
  C23      1.0000 0.97240  0.30668  0.61802  Biso   1.000  C
  C24      1.0000 0.69332  0.97240  0.61802  Biso   1.000  C
  C25      1.0000 0.47018  0.80602  0.88179  Biso   1.000  C
  C26      1.0000 0.19398  0.47018  0.88178  Biso   1.000  C
  C27      1.0000 0.52982  0.19398  0.88178  Biso   1.000  C
  C28      1.0000 0.80602  0.52982  0.88179  Biso   1.000  C
  C29      1.0000 0.97240  0.30668  0.38198  Biso   1.000  C
  C30      1.0000 0.69332  0.97240  0.38198  Biso   1.000  C
  C31      1.0000 0.02760  0.69332  0.38198  Biso   1.000  C
  C32      1.0000 0.30668  0.02761  0.38198  Biso   1.000  C
  H1       1.0000 0.53905  0.14675  0.11036  Biso   1.000  H
  H2       1.0000 0.85325  0.53905  0.11036  Biso   1.000  H
  H3       1.0000 0.46096  0.85325  0.11036  Biso   1.000  H
  H4       1.0000 0.14675  0.46096  0.11036  Biso   1.000  H
  H5       1.0000 0.03674  0.64604  0.61021  Biso   1.000  H
  H6       1.0000 0.35395  0.03674  0.61021  Biso   1.000  H
  H7       1.0000 0.96327  0.35395  0.61021  Biso   1.000  H
  H8       1.0000 0.64604  0.96327  0.61021  Biso   1.000  H
  H9       1.0000 0.46096  0.85325  0.88964  Biso   1.000  H
  H10      1.0000 0.14675  0.46096  0.88964  Biso   1.000  H
  H11      1.0000 0.53905  0.14675  0.88964  Biso   1.000  H
  H12      1.0000 0.85325  0.53905  0.88964  Biso   1.000  H
  H13      1.0000 0.96327  0.35395  0.38979  Biso   1.000  H
  H14      1.0000 0.64604  0.96327  0.38979  Biso   1.000  H
  H15      1.0000 0.03674  0.64604  0.38979  Biso   1.000  H
  H16      1.0000 0.35395  0.03674  0.38979  Biso   1.000  H
  C33      1.0000 0.51440  0.20620  0.15267  Biso   1.000  C
  C34      1.0000 0.79379  0.51439  0.15266  Biso   1.000  C
  C35      1.0000 0.48561  0.79380  0.15266  Biso   1.000  C
  C36      1.0000 0.20620  0.48560  0.15267  Biso   1.000  C
  C37      1.0000 0.01286  0.70573  0.65254  Biso   1.000  C
  C38      1.0000 0.29427  0.01286  0.65254  Biso   1.000  C
  C39      1.0000 0.98714  0.29427  0.65254  Biso   1.000  C
  C40      1.0000 0.70573  0.98714  0.65254  Biso   1.000  C
  C41      1.0000 0.48561  0.79380  0.84734  Biso   1.000  C
  C42      1.0000 0.20620  0.48560  0.84733  Biso   1.000  C
  C43      1.0000 0.51440  0.20620  0.84733  Biso   1.000  C
  C44      1.0000 0.79379  0.51439  0.84734  Biso   1.000  C
  C45      1.0000 0.98714  0.29427  0.34746  Biso   1.000  C
  C46      1.0000 0.70573  0.98714  0.34746  Biso   1.000  C
  C47      1.0000 0.01286  0.70573  0.34746  Biso   1.000  C
  C48      1.0000 0.29427  0.01286  0.34746  Biso   1.000  C
  C49      1.0000 0.50129  0.26756  0.16204  Biso   1.000  C
  C50      1.0000 0.73244  0.50129  0.16203  Biso   1.000  C
  C51      1.0000 0.49871  0.73244  0.16203  Biso   1.000  C
  C52      1.0000 0.26756  0.49871  0.16204  Biso   1.000  C
  C53      1.0000 0.99995  0.76712  0.66192  Biso   1.000  C
  C54      1.0000 0.23288  0.99995  0.66192  Biso   1.000  C
  C55      1.0000 0.00005  0.23288  0.66191  Biso   1.000  C
  C56      1.0000 0.76712  0.00005  0.66191  Biso   1.000  C
  C57      1.0000 0.49871  0.73244  0.83797  Biso   1.000  C
  C58      1.0000 0.26756  0.49871  0.83796  Biso   1.000  C
  C59      1.0000 0.50129  0.26756  0.83796  Biso   1.000  C
  C60      1.0000 0.73244  0.50129  0.83797  Biso   1.000  C
  C61      1.0000 0.00005  0.23288  0.33809  Biso   1.000  C
  C62      1.0000 0.76712  0.00005  0.33809  Biso   1.000  C
  C63      1.0000 0.99995  0.76712  0.33808  Biso   1.000  C
  C64      1.0000 0.23288  0.99995  0.33808  Biso   1.000  C
  H17      1.0000 0.49027  0.27811  0.18863  Biso   1.000  H
  H18      1.0000 0.72189  0.49027  0.18863  Biso   1.000  H
  H19      1.0000 0.50974  0.72189  0.18863  Biso   1.000  H
  H20      1.0000 0.27811  0.50974  0.18863  Biso   1.000  H
  H21      1.0000 0.98950  0.77774  0.68857  Biso   1.000  H
  H22      1.0000 0.22226  0.98950  0.68857  Biso   1.000  H
  H23      1.0000 0.01050  0.22226  0.68857  Biso   1.000  H
  H24      1.0000 0.77774  0.01050  0.68857  Biso   1.000  H
  H25      1.0000 0.50974  0.72189  0.81137  Biso   1.000  H
  H26      1.0000 0.27811  0.50974  0.81137  Biso   1.000  H
  H27      1.0000 0.49027  0.27811  0.81137  Biso   1.000  H
  H28      1.0000 0.72189  0.49027  0.81137  Biso   1.000  H
  H29      1.0000 0.01050  0.22226  0.31143  Biso   1.000  H
  H30      1.0000 0.77774  0.01050  0.31143  Biso   1.000  H
  H31      1.0000 0.98950  0.77774  0.31143  Biso   1.000  H
  H32      1.0000 0.22226  0.98950  0.31143  Biso   1.000  H
  C65      1.0000 0.50343  0.31483  0.13792  Biso   1.000  C
  C66      1.0000 0.68517  0.50343  0.13792  Biso   1.000  C
  C67      1.0000 0.49657  0.68517  0.13792  Biso   1.000  C
  C68      1.0000 0.31483  0.49657  0.13792  Biso   1.000  C
  C69      1.0000 0.00166  0.81428  0.63773  Biso   1.000  C
  C70      1.0000 0.18572  0.00166  0.63772  Biso   1.000  C
  C71      1.0000 0.99834  0.18571  0.63772  Biso   1.000  C
  C72      1.0000 0.81428  0.99834  0.63772  Biso   1.000  C
  C73      1.0000 0.49657  0.68517  0.86208  Biso   1.000  C
  C74      1.0000 0.31483  0.49657  0.86208  Biso   1.000  C
  C75      1.0000 0.50343  0.31483  0.86208  Biso   1.000  C
  C76      1.0000 0.68517  0.50343  0.86208  Biso   1.000  C
  C77      1.0000 0.99834  0.18571  0.36228  Biso   1.000  C
  C78      1.0000 0.81428  0.99834  0.36228  Biso   1.000  C
  C79      1.0000 0.00166  0.81428  0.36228  Biso   1.000  C
  C80      1.0000 0.18572  0.00166  0.36228  Biso   1.000  C
  H33      1.0000 0.49356  0.36225  0.14512  Biso   1.000  H
  H34      1.0000 0.63775  0.49357  0.14512  Biso   1.000  H
  H35      1.0000 0.50644  0.63775  0.14512  Biso   1.000  H
  H36      1.0000 0.36225  0.50644  0.14512  Biso   1.000  H
  H37      1.0000 0.99202  0.86175  0.64493  Biso   1.000  H
  H38      1.0000 0.13825  0.99202  0.64493  Biso   1.000  H
  H39      1.0000 0.00799  0.13825  0.64492  Biso   1.000  H
  H40      1.0000 0.86175  0.00798  0.64492  Biso   1.000  H
  H41      1.0000 0.50644  0.63775  0.85488  Biso   1.000  H
  H42      1.0000 0.36225  0.50644  0.85488  Biso   1.000  H
  H43      1.0000 0.49356  0.36225  0.85488  Biso   1.000  H
  H44      1.0000 0.63775  0.49357  0.85488  Biso   1.000  H
  H45      1.0000 0.00799  0.13825  0.35508  Biso   1.000  H
  H46      1.0000 0.86175  0.00798  0.35508  Biso   1.000  H
  H47      1.0000 0.99202  0.86175  0.35507  Biso   1.000  H
  H48      1.0000 0.13825  0.99202  0.35507  Biso   1.000  H
  C81      1.0000 0.51825  0.30203  0.10357  Biso   1.000  C
  C82      1.0000 0.69797  0.51826  0.10357  Biso   1.000  C
  C83      1.0000 0.48174  0.69797  0.10357  Biso   1.000  C
  C84      1.0000 0.30203  0.48174  0.10357  Biso   1.000  C
  C85      1.0000 0.01577  0.80130  0.60330  Biso   1.000  C
  C86      1.0000 0.19870  0.01577  0.60330  Biso   1.000  C
  C87      1.0000 0.98424  0.19869  0.60330  Biso   1.000  C
  C88      1.0000 0.80130  0.98423  0.60330  Biso   1.000  C
  C89      1.0000 0.48174  0.69797  0.89643  Biso   1.000  C
  C90      1.0000 0.30203  0.48174  0.89643  Biso   1.000  C
  C91      1.0000 0.51825  0.30203  0.89643  Biso   1.000  C
  C92      1.0000 0.69797  0.51826  0.89643  Biso   1.000  C
  C93      1.0000 0.98424  0.19869  0.39670  Biso   1.000  C
  C94      1.0000 0.80130  0.98423  0.39670  Biso   1.000  C
  C95      1.0000 0.01577  0.80130  0.39670  Biso   1.000  C
  C96      1.0000 0.19870  0.01577  0.39670  Biso   1.000  C
  C97      1.0000 0.53142  0.24107  0.09397  Biso   1.000  C
  C98      1.0000 0.75893  0.53142  0.09397  Biso   1.000  C
  C99      1.0000 0.46858  0.75893  0.09397  Biso   1.000  C
  C100     1.0000 0.24107  0.46858  0.09397  Biso   1.000  C
  C101     1.0000 0.02869  0.74029  0.59370  Biso   1.000  C
  C102     1.0000 0.25971  0.02869  0.59370  Biso   1.000  C
  C103     1.0000 0.97131  0.25971  0.59370  Biso   1.000  C
  C104     1.0000 0.74029  0.97131  0.59370  Biso   1.000  C
  C105     1.0000 0.46858  0.75893  0.90603  Biso   1.000  C
  C106     1.0000 0.24107  0.46858  0.90603  Biso   1.000  C
  C107     1.0000 0.53142  0.24107  0.90603  Biso   1.000  C
  C108     1.0000 0.75893  0.53142  0.90603  Biso   1.000  C
  C109     1.0000 0.97131  0.25971  0.40630  Biso   1.000  C
  C110     1.0000 0.74029  0.97131  0.40630  Biso   1.000  C
  C111     1.0000 0.02869  0.74029  0.40630  Biso   1.000  C
  C112     1.0000 0.25971  0.02869  0.40630  Biso   1.000  C
  H49      1.0000 0.54236  0.23137  0.06729  Biso   1.000  H
  H50      1.0000 0.76862  0.54236  0.06729  Biso   1.000  H
  H51      1.0000 0.45763  0.76863  0.06729  Biso   1.000  H
  H52      1.0000 0.23137  0.45763  0.06729  Biso   1.000  H
  H53      1.0000 0.03909  0.73044  0.56697  Biso   1.000  H
  H54      1.0000 0.26956  0.03909  0.56697  Biso   1.000  H
  H55      1.0000 0.96091  0.26955  0.56697  Biso   1.000  H
  H56      1.0000 0.73045  0.96090  0.56697  Biso   1.000  H
  H57      1.0000 0.45763  0.76863  0.93271  Biso   1.000  H
  H58      1.0000 0.23137  0.45763  0.93271  Biso   1.000  H
  H59      1.0000 0.54236  0.23137  0.93271  Biso   1.000  H
  H60      1.0000 0.76862  0.54236  0.93271  Biso   1.000  H
  H61      1.0000 0.96091  0.26955  0.43303  Biso   1.000  H
  H62      1.0000 0.73045  0.96090  0.43303  Biso   1.000  H
  H63      1.0000 0.03909  0.73044  0.43303  Biso   1.000  H
  H64      1.0000 0.26956  0.03909  0.43303  Biso   1.000  H
  C113     1.0000 0.55241  0.10548  0.17650  Biso   1.000  C
  C114     1.0000 0.89452  0.55240  0.17649  Biso   1.000  C
  C115     1.0000 0.44760  0.89452  0.17649  Biso   1.000  C
  C116     1.0000 0.10548  0.44759  0.17650  Biso   1.000  C
  C117     1.0000 0.05161  0.60537  0.67647  Biso   1.000  C
  C118     1.0000 0.39463  0.05161  0.67647  Biso   1.000  C
  C119     1.0000 0.94838  0.39463  0.67647  Biso   1.000  C
  C120     1.0000 0.60537  0.94838  0.67647  Biso   1.000  C
  C121     1.0000 0.44760  0.89452  0.82351  Biso   1.000  C
  C122     1.0000 0.10548  0.44759  0.82350  Biso   1.000  C
  C123     1.0000 0.55241  0.10548  0.82350  Biso   1.000  C
  C124     1.0000 0.89452  0.55240  0.82351  Biso   1.000  C
  C125     1.0000 0.94838  0.39463  0.32353  Biso   1.000  C
  C126     1.0000 0.60537  0.94838  0.32353  Biso   1.000  C
  C127     1.0000 0.05161  0.60537  0.32353  Biso   1.000  C
  C128     1.0000 0.39463  0.05161  0.32353  Biso   1.000  C
  H65      1.0000 0.58827  0.10486  0.15698  Biso   1.000  H
  H66      1.0000 0.89514  0.58826  0.15698  Biso   1.000  H
  H67      1.0000 0.41174  0.89514  0.15698  Biso   1.000  H
  H68      1.0000 0.10486  0.41173  0.15698  Biso   1.000  H
  H69      1.0000 0.08724  0.60477  0.65683  Biso   1.000  H
  H70      1.0000 0.39523  0.08724  0.65683  Biso   1.000  H
  H71      1.0000 0.91275  0.39523  0.65683  Biso   1.000  H
  H72      1.0000 0.60477  0.91275  0.65683  Biso   1.000  H
  H73      1.0000 0.41174  0.89514  0.84302  Biso   1.000  H
  H74      1.0000 0.10486  0.41173  0.84302  Biso   1.000  H
  H75      1.0000 0.58827  0.10486  0.84302  Biso   1.000  H
  H76      1.0000 0.89514  0.58826  0.84302  Biso   1.000  H
  H77      1.0000 0.91275  0.39523  0.34317  Biso   1.000  H
  H78      1.0000 0.60477  0.91275  0.34317  Biso   1.000  H
  H79      1.0000 0.08724  0.60477  0.34317  Biso   1.000  H
  H80      1.0000 0.39523  0.08724  0.34317  Biso   1.000  H
  C129     1.0000 0.51134  0.15570  0.17806  Biso   1.000  C
  C130     1.0000 0.84429  0.51134  0.17805  Biso   1.000  C
  C131     1.0000 0.48866  0.84429  0.17805  Biso   1.000  C
  C132     1.0000 0.15570  0.48866  0.17806  Biso   1.000  C
  C133     1.0000 0.01029  0.65538  0.67803  Biso   1.000  C
  C134     1.0000 0.34462  0.01029  0.67803  Biso   1.000  C
  C135     1.0000 0.98970  0.34462  0.67803  Biso   1.000  C
  C136     1.0000 0.65538  0.98970  0.67803  Biso   1.000  C
  C137     1.0000 0.48866  0.84429  0.82195  Biso   1.000  C
  C138     1.0000 0.15570  0.48866  0.82194  Biso   1.000  C
  C139     1.0000 0.51134  0.15570  0.82194  Biso   1.000  C
  C140     1.0000 0.84429  0.51134  0.82195  Biso   1.000  C
  C141     1.0000 0.98970  0.34462  0.32197  Biso   1.000  C
  C142     1.0000 0.65538  0.98970  0.32197  Biso   1.000  C
  C143     1.0000 0.01029  0.65538  0.32197  Biso   1.000  C
  C144     1.0000 0.34462  0.01029  0.32197  Biso   1.000  C
  C145     1.0000 0.46659  0.15524  0.20407  Biso   1.000  C
  C146     1.0000 0.84476  0.46659  0.20407  Biso   1.000  C
  C147     1.0000 0.53341  0.84476  0.20407  Biso   1.000  C
  C148     1.0000 0.15524  0.53341  0.20407  Biso   1.000  C
  C149     1.0000 0.96575  0.65488  0.70415  Biso   1.000  C
  C150     1.0000 0.34512  0.96575  0.70415  Biso   1.000  C
  C151     1.0000 0.03424  0.34512  0.70415  Biso   1.000  C
  C152     1.0000 0.65488  0.03424  0.70415  Biso   1.000  C
  C153     1.0000 0.53341  0.84476  0.79593  Biso   1.000  C
  C154     1.0000 0.15524  0.53341  0.79593  Biso   1.000  C
  C155     1.0000 0.46659  0.15524  0.79593  Biso   1.000  C
  C156     1.0000 0.84476  0.46659  0.79593  Biso   1.000  C
  C157     1.0000 0.03424  0.34512  0.29585  Biso   1.000  C
  C158     1.0000 0.65488  0.03424  0.29585  Biso   1.000  C
  C159     1.0000 0.96575  0.65488  0.29585  Biso   1.000  C
  C160     1.0000 0.34512  0.96575  0.29585  Biso   1.000  C
  H81      1.0000 0.43313  0.19253  0.20543  Biso   1.000  H
  H82      1.0000 0.80746  0.43313  0.20543  Biso   1.000  H
  H83      1.0000 0.56687  0.80746  0.20543  Biso   1.000  H
  H84      1.0000 0.19253  0.56687  0.20543  Biso   1.000  H
  H85      1.0000 0.93207  0.69197  0.70549  Biso   1.000  H
  H86      1.0000 0.30802  0.93207  0.70549  Biso   1.000  H
  H87      1.0000 0.06793  0.30802  0.70549  Biso   1.000  H
  H88      1.0000 0.69197  0.06793  0.70549  Biso   1.000  H
  H89      1.0000 0.56687  0.80746  0.79457  Biso   1.000  H
  H90      1.0000 0.19253  0.56687  0.79457  Biso   1.000  H
  H91      1.0000 0.43313  0.19253  0.79457  Biso   1.000  H
  H92      1.0000 0.80746  0.43313  0.79457  Biso   1.000  H
  H93      1.0000 0.06793  0.30802  0.29451  Biso   1.000  H
  H94      1.0000 0.69197  0.06793  0.29451  Biso   1.000  H
  H95      1.0000 0.93207  0.69197  0.29451  Biso   1.000  H
  H96      1.0000 0.30802  0.93207  0.29451  Biso   1.000  H
  C161     1.0000 0.46264  0.10656  0.22750  Biso   1.000  C
  C162     1.0000 0.89343  0.46264  0.22750  Biso   1.000  C
  C163     1.0000 0.53736  0.89343  0.22750  Biso   1.000  C
  C164     1.0000 0.10656  0.53736  0.22750  Biso   1.000  C
  C165     1.0000 0.96223  0.60633  0.72768  Biso   1.000  C
  C166     1.0000 0.39366  0.96223  0.72768  Biso   1.000  C
  C167     1.0000 0.03777  0.39366  0.72768  Biso   1.000  C
  C168     1.0000 0.60634  0.03777  0.72768  Biso   1.000  C
  C169     1.0000 0.53736  0.89343  0.77250  Biso   1.000  C
  C170     1.0000 0.10656  0.53736  0.77250  Biso   1.000  C
  C171     1.0000 0.46264  0.10656  0.77250  Biso   1.000  C
  C172     1.0000 0.89343  0.46264  0.77250  Biso   1.000  C
  C173     1.0000 0.03777  0.39366  0.27232  Biso   1.000  C
  C174     1.0000 0.60634  0.03777  0.27232  Biso   1.000  C
  C175     1.0000 0.96223  0.60633  0.27232  Biso   1.000  C
  C176     1.0000 0.39366  0.96223  0.27232  Biso   1.000  C
  H97      1.0000 0.42648  0.10728  0.24678  Biso   1.000  H
  H98      1.0000 0.89271  0.42648  0.24678  Biso   1.000  H
  H99      1.0000 0.57352  0.89271  0.24678  Biso   1.000  H
  H100     1.0000 0.10728  0.57352  0.24678  Biso   1.000  H
  H101     1.0000 0.92617  0.60696  0.74702  Biso   1.000  H
  H102     1.0000 0.39304  0.92617  0.74702  Biso   1.000  H
  H103     1.0000 0.07382  0.39304  0.74702  Biso   1.000  H
  H104     1.0000 0.60696  0.07382  0.74701  Biso   1.000  H
  H105     1.0000 0.57352  0.89271  0.75322  Biso   1.000  H
  H106     1.0000 0.10728  0.57352  0.75322  Biso   1.000  H
  H107     1.0000 0.42648  0.10728  0.75322  Biso   1.000  H
  H108     1.0000 0.89271  0.42648  0.75322  Biso   1.000  H
  H109     1.0000 0.07382  0.39304  0.25298  Biso   1.000  H
  H110     1.0000 0.60696  0.07382  0.25299  Biso   1.000  H
  H111     1.0000 0.92617  0.60696  0.25298  Biso   1.000  H
  H112     1.0000 0.39304  0.92617  0.25298  Biso   1.000  H
  C177     1.0000 0.50338  0.05661  0.22586  Biso   1.000  C
  C178     1.0000 0.94338  0.50338  0.22587  Biso   1.000  C
  C179     1.0000 0.49662  0.94338  0.22587  Biso   1.000  C
  C180     1.0000 0.05661  0.49662  0.22586  Biso   1.000  C
  C181     1.0000 0.00323  0.55660  0.72606  Biso   1.000  C
  C182     1.0000 0.44339  0.00323  0.72606  Biso   1.000  C
  C183     1.0000 0.99676  0.44339  0.72606  Biso   1.000  C
  C184     1.0000 0.55661  0.99676  0.72606  Biso   1.000  C
  C185     1.0000 0.49662  0.94338  0.77413  Biso   1.000  C
  C186     1.0000 0.05661  0.49662  0.77414  Biso   1.000  C
  C187     1.0000 0.50338  0.05661  0.77414  Biso   1.000  C
  C188     1.0000 0.94338  0.50338  0.77413  Biso   1.000  C
  C189     1.0000 0.99676  0.44339  0.27394  Biso   1.000  C
  C190     1.0000 0.55661  0.99676  0.27394  Biso   1.000  C
  C191     1.0000 0.00323  0.55660  0.27394  Biso   1.000  C
  C192     1.0000 0.44339  0.00323  0.27394  Biso   1.000  C
  C193     1.0000 0.54820  0.05702  0.19975  Biso   1.000  C
  C194     1.0000 0.94297  0.54820  0.19975  Biso   1.000  C
  C195     1.0000 0.45180  0.94297  0.19975  Biso   1.000  C
  C196     1.0000 0.05702  0.45180  0.19975  Biso   1.000  C
  C197     1.0000 0.04788  0.55707  0.69986  Biso   1.000  C
  C198     1.0000 0.44292  0.04788  0.69986  Biso   1.000  C
  C199     1.0000 0.95211  0.44292  0.69986  Biso   1.000  C
  C200     1.0000 0.55708  0.95211  0.69986  Biso   1.000  C
  C201     1.0000 0.45180  0.94297  0.80025  Biso   1.000  C
  C202     1.0000 0.05702  0.45180  0.80025  Biso   1.000  C
  C203     1.0000 0.54820  0.05702  0.80025  Biso   1.000  C
  C204     1.0000 0.94297  0.54820  0.80025  Biso   1.000  C
  C205     1.0000 0.95211  0.44292  0.30014  Biso   1.000  C
  C206     1.0000 0.55708  0.95211  0.30014  Biso   1.000  C
  C207     1.0000 0.04788  0.55707  0.30014  Biso   1.000  C
  C208     1.0000 0.44292  0.04788  0.30014  Biso   1.000  C
  H113     1.0000 0.57987  0.01832  0.19757  Biso   1.000  H
  H114     1.0000 0.98168  0.57987  0.19757  Biso   1.000  H
  H115     1.0000 0.42013  0.98168  0.19757  Biso   1.000  H
  H116     1.0000 0.01832  0.42013  0.19757  Biso   1.000  H
  H117     1.0000 0.07972  0.51850  0.69767  Biso   1.000  H
  H118     1.0000 0.48150  0.07971  0.69767  Biso   1.000  H
  H119     1.0000 0.92028  0.48149  0.69767  Biso   1.000  H
  H120     1.0000 0.51850  0.92028  0.69767  Biso   1.000  H
  H121     1.0000 0.42013  0.98168  0.80243  Biso   1.000  H
  H122     1.0000 0.01832  0.42013  0.80243  Biso   1.000  H
  H123     1.0000 0.57987  0.01832  0.80243  Biso   1.000  H
  H124     1.0000 0.98168  0.57987  0.80243  Biso   1.000  H
  H125     1.0000 0.92028  0.48149  0.30233  Biso   1.000  H
  H126     1.0000 0.51850  0.92028  0.30233  Biso   1.000  H
  H127     1.0000 0.07972  0.51850  0.30233  Biso   1.000  H
  H128     1.0000 0.48150  0.07971  0.30233  Biso   1.000  H
  C209     1.0000 0.50000  0.99999  0.24989  Biso   1.000  C
  C210     1.0000 1.00000  0.50000  0.24989  Biso   1.000  C
  C211     1.0000 1.00000  0.50000  0.75011  Biso   1.000  C
  C212     1.0000 0.50000  0.99999  0.75011  Biso   1.000  C
