data_image0
_cell_length_a       17.6994
_cell_length_b       20.4228
_cell_length_c       7.4471
_cell_angle_alpha    90.0816
_cell_angle_beta     89.9081
_cell_angle_gamma    89.9634

_symmetry_space_group_name_H-M    "P 1"
_symmetry_int_tables_number       1

loop_
  _symmetry_equiv_pos_as_xyz
  'x, y, z'

loop_
  _atom_site_label
  _atom_site_occupancy
  _atom_site_fract_x
  _atom_site_fract_y
  _atom_site_fract_z
  _atom_site_thermal_displace_type
  _atom_site_B_iso_or_equiv
  _atom_site_type_symbol
  O1       1.0000 0.26278  0.99983  0.99968  Biso   1.000  O
  O2       1.0000 0.76389  0.49992  0.00635  Biso   1.000  O
  O3       1.0000 0.74363  0.00030  0.99946  Biso   1.000  O
  O4       1.0000 0.24365  0.49995  0.99932  Biso   1.000  O
  O5       1.0000 0.28424  0.99942  0.49531  Biso   1.000  O
  O6       1.0000 0.78394  0.49970  0.49192  Biso   1.000  O
  O7       1.0000 0.71545  0.99745  0.49256  Biso   1.000  O
  O8       1.0000 0.21548  0.49836  0.49282  Biso   1.000  O
  O9       1.0000 0.31904  0.08618  0.23994  Biso   1.000  O
  O10      1.0000 0.81849  0.58870  0.24282  Biso   1.000  O
  O11      1.0000 0.65692  0.06877  0.22450  Biso   1.000  O
  O12      1.0000 0.15699  0.56886  0.22319  Biso   1.000  O
  O13      1.0000 0.31880  0.91426  0.75574  Biso   1.000  O
  O14      1.0000 0.81921  0.41652  0.75512  Biso   1.000  O
  O15      1.0000 0.65633  0.93335  0.77374  Biso   1.000  O
  O16      1.0000 0.15681  0.43308  0.77232  Biso   1.000  O
  O17      1.0000 0.36930  0.08374  0.90607  Biso   1.000  O
  O18      1.0000 0.87103  0.58352  0.91222  Biso   1.000  O
  O19      1.0000 0.64034  0.08353  0.88062  Biso   1.000  O
  O20      1.0000 0.14108  0.58334  0.87817  Biso   1.000  O
  O21      1.0000 0.39328  0.91055  0.44539  Biso   1.000  O
  O22      1.0000 0.89360  0.41088  0.44483  Biso   1.000  O
  O23      1.0000 0.59862  0.91375  0.45979  Biso   1.000  O
  O24      1.0000 0.09880  0.41492  0.45791  Biso   1.000  O
  O25      1.0000 0.63898  0.91905  0.11933  Biso   1.000  O
  O26      1.0000 0.14063  0.41658  0.11774  Biso   1.000  O
  O27      1.0000 0.36970  0.91514  0.08769  Biso   1.000  O
  O28      1.0000 0.86960  0.41354  0.08688  Biso   1.000  O
  O29      1.0000 0.59984  0.08163  0.54083  Biso   1.000  O
  O30      1.0000 0.09969  0.58277  0.53906  Biso   1.000  O
  O31      1.0000 0.39341  0.08862  0.54878  Biso   1.000  O
  O32      1.0000 0.89209  0.58873  0.55375  Biso   1.000  O
  O33      1.0000 0.22752  0.12298  0.97483  Biso   1.000  O
  O34      1.0000 0.72844  0.62253  0.97122  Biso   1.000  O
  O35      1.0000 0.76584  0.12793  0.04720  Biso   1.000  O
  O36      1.0000 0.26640  0.62751  0.04709  Biso   1.000  O
  O37      1.0000 0.24750  0.87819  0.45119  Biso   1.000  O
  O38      1.0000 0.74818  0.37812  0.45111  Biso   1.000  O
  O39      1.0000 0.73892  0.87034  0.53093  Biso   1.000  O
  O40      1.0000 0.23914  0.37116  0.52532  Biso   1.000  O
  O41      1.0000 0.76368  0.87231  0.95183  Biso   1.000  O
  O42      1.0000 0.26549  0.37242  0.94611  Biso   1.000  O
  O43      1.0000 0.22749  0.87686  0.02225  Biso   1.000  O
  O44      1.0000 0.72682  0.37711  0.01654  Biso   1.000  O
  O45      1.0000 0.74080  0.12489  0.47635  Biso   1.000  O
  O46      1.0000 0.24085  0.62538  0.47600  Biso   1.000  O
  O47      1.0000 0.24736  0.12011  0.54716  Biso   1.000  O
  O48      1.0000 0.74587  0.62002  0.55003  Biso   1.000  O
  O49      1.0000 0.32817  0.33635  0.25546  Biso   1.000  O
  O50      1.0000 0.82744  0.83602  0.25889  Biso   1.000  O
  O51      1.0000 0.68740  0.28388  0.25019  Biso   1.000  O
  O52      1.0000 0.18669  0.78342  0.25228  Biso   1.000  O
  O53      1.0000 0.33025  0.66398  0.73942  Biso   1.000  O
  O54      1.0000 0.83012  0.16371  0.73876  Biso   1.000  O
  O55      1.0000 0.68570  0.71637  0.74570  Biso   1.000  O
  O56      1.0000 0.18733  0.21625  0.74202  Biso   1.000  O
  O57      1.0000 0.26140  0.24698  0.04513  Biso   1.000  O
  O58      1.0000 0.76027  0.74675  0.04762  Biso   1.000  O
  O59      1.0000 0.76211  0.25321  0.94733  Biso   1.000  O
  O60      1.0000 0.26268  0.75296  0.95163  Biso   1.000  O
  O61      1.0000 0.26295  0.75347  0.54667  Biso   1.000  O
  O62      1.0000 0.76330  0.25313  0.54464  Biso   1.000  O
  O63      1.0000 0.76480  0.74372  0.45220  Biso   1.000  O
  O64      1.0000 0.26491  0.24414  0.44695  Biso   1.000  O
  O65      1.0000 0.39114  0.30280  0.94738  Biso   1.000  O
  O66      1.0000 0.89005  0.80315  0.95099  Biso   1.000  O
  O67      1.0000 0.61860  0.29418  0.93710  Biso   1.000  O
  O68      1.0000 0.11927  0.79435  0.93821  Biso   1.000  O
  O69      1.0000 0.37151  0.68105  0.39929  Biso   1.000  O
  O70      1.0000 0.87177  0.18040  0.39882  Biso   1.000  O
  O71      1.0000 0.63093  0.68670  0.42054  Biso   1.000  O
  O72      1.0000 0.13225  0.18548  0.41528  Biso   1.000  O
  O73      1.0000 0.61815  0.70245  0.06021  Biso   1.000  O
  O74      1.0000 0.11844  0.20507  0.05495  Biso   1.000  O
  O75      1.0000 0.39280  0.69683  0.04660  Biso   1.000  O
  O76      1.0000 0.89186  0.19713  0.04576  Biso   1.000  O
  O77      1.0000 0.63159  0.31345  0.57720  Biso   1.000  O
  O78      1.0000 0.13088  0.81365  0.57824  Biso   1.000  O
  O79      1.0000 0.37199  0.31751  0.59314  Biso   1.000  O
  O80      1.0000 0.87236  0.81706  0.59535  Biso   1.000  O
  O81      1.0000 0.00106  0.38085  0.20394  Biso   1.000  O
  O82      1.0000 0.50062  0.88039  0.20503  Biso   1.000  O
  O83      1.0000 0.00114  0.61789  0.78976  Biso   1.000  O
  O84      1.0000 0.50079  0.11749  0.78953  Biso   1.000  O
  O85      1.0000 0.11876  0.30420  0.28180  Biso   1.000  O
  O86      1.0000 0.62009  0.80471  0.27513  Biso   1.000  O
  O87      1.0000 0.88357  0.30027  0.26132  Biso   1.000  O
  O88      1.0000 0.38179  0.80076  0.25818  Biso   1.000  O
  O89      1.0000 0.11858  0.69477  0.71097  Biso   1.000  O
  O90      1.0000 0.61841  0.19441  0.71033  Biso   1.000  O
  O91      1.0000 0.88257  0.69828  0.74229  Biso   1.000  O
  O92      1.0000 0.38303  0.19832  0.73638  Biso   1.000  O
  O93      1.0000 0.00279  0.21949  0.27484  Biso   1.000  O
  O94      1.0000 0.50238  0.72212  0.27986  Biso   1.000  O
  O95      1.0000 0.00217  0.77852  0.72523  Biso   1.000  O
  O96      1.0000 0.50244  0.27862  0.71902  Biso   1.000  O
  Si1      1.0000 0.29499  0.07355  0.03167  Biso   1.000  Si
  Si2      1.0000 0.79568  0.57394  0.03480  Biso   1.000  Si
  Si3      1.0000 0.70250  0.07092  0.03551  Biso   1.000  Si
  Si4      1.0000 0.20278  0.57073  0.03434  Biso   1.000  Si
  Si5      1.0000 0.31136  0.92540  0.54087  Biso   1.000  Si
  Si6      1.0000 0.81162  0.42602  0.53978  Biso   1.000  Si
  Si7      1.0000 0.67827  0.92876  0.56313  Biso   1.000  Si
  Si8      1.0000 0.17855  0.42934  0.56136  Biso   1.000  Si
  Si9      1.0000 0.70142  0.93025  0.96325  Biso   1.000  Si
  Si10     1.0000 0.20233  0.42964  0.96122  Biso   1.000  Si
  Si11     1.0000 0.29494  0.92622  0.96465  Biso   1.000  Si
  Si12     1.0000 0.79511  0.42647  0.96459  Biso   1.000  Si
  Si13     1.0000 0.67929  0.06812  0.43483  Biso   1.000  Si
  Si14     1.0000 0.17921  0.56879  0.43376  Biso   1.000  Si
  Si15     1.0000 0.31148  0.07372  0.45424  Biso   1.000  Si
  Si16     1.0000 0.81063  0.57451  0.45642  Biso   1.000  Si
  Si17     1.0000 0.31083  0.31436  0.05003  Biso   1.000  Si
  Si18     1.0000 0.80961  0.81418  0.05362  Biso   1.000  Si
  Si19     1.0000 0.69967  0.30164  0.03906  Biso   1.000  Si
  Si20     1.0000 0.19996  0.80141  0.04176  Biso   1.000  Si
  Si21     1.0000 0.30046  0.68090  0.53799  Biso   1.000  Si
  Si22     1.0000 0.80058  0.18047  0.53708  Biso   1.000  Si
  Si23     1.0000 0.70679  0.69192  0.54345  Biso   1.000  Si
  Si24     1.0000 0.20780  0.19179  0.53925  Biso   1.000  Si
  Si25     1.0000 0.69901  0.69756  0.95561  Biso   1.000  Si
  Si26     1.0000 0.19966  0.19826  0.95292  Biso   1.000  Si
  Si27     1.0000 0.31229  0.68561  0.94476  Biso   1.000  Si
  Si28     1.0000 0.81164  0.18576  0.94346  Biso   1.000  Si
  Si29     1.0000 0.70760  0.30691  0.45417  Biso   1.000  Si
  Si30     1.0000 0.20699  0.80695  0.45559  Biso   1.000  Si
  Si31     1.0000 0.30017  0.31753  0.45727  Biso   1.000  Si
  Si32     1.0000 0.80003  0.81710  0.46101  Biso   1.000  Si
  Si33     1.0000 0.08870  0.37918  0.26409  Biso   1.000  Si
  Si34     1.0000 0.58840  0.87944  0.26400  Biso   1.000  Si
  Si35     1.0000 0.91177  0.37639  0.25098  Biso   1.000  Si
  Si36     1.0000 0.41117  0.87666  0.25068  Biso   1.000  Si
  Si37     1.0000 0.08895  0.61974  0.73084  Biso   1.000  Si
  Si38     1.0000 0.58873  0.11940  0.73141  Biso   1.000  Si
  Si39     1.0000 0.91150  0.62224  0.74788  Biso   1.000  Si
  Si40     1.0000 0.41149  0.12217  0.74373  Biso   1.000  Si
  Si41     1.0000 0.09299  0.22817  0.25581  Biso   1.000  Si
  Si42     1.0000 0.59278  0.72865  0.25820  Biso   1.000  Si
  Si43     1.0000 0.91279  0.22448  0.24529  Biso   1.000  Si
  Si44     1.0000 0.41248  0.72525  0.24595  Biso   1.000  Si
  Si45     1.0000 0.09265  0.77072  0.73896  Biso   1.000  Si
  Si46     1.0000 0.59275  0.27052  0.73707  Biso   1.000  Si
  Si47     1.0000 0.91201  0.77418  0.75339  Biso   1.000  Si
  Si48     1.0000 0.41239  0.27418  0.74903  Biso   1.000  Si
