data_image0
_cell_length_a       25.4625
_cell_length_b       25.4829
_cell_length_c       12.3731
_cell_angle_alpha    90
_cell_angle_beta     90
_cell_angle_gamma    89.9005

_symmetry_space_group_name_H-M    "P 1"
_symmetry_int_tables_number       1

loop_
  _symmetry_equiv_pos_as_xyz
  'x, y, z'

loop_
  _atom_site_label
  _atom_site_occupancy
  _atom_site_fract_x
  _atom_site_fract_y
  _atom_site_fract_z
  _atom_site_thermal_displace_type
  _atom_site_B_iso_or_equiv
  _atom_site_type_symbol
  N1       1.0000 0.21637  0.17201  0.27747  Biso   1.000  N
  N2       1.0000 0.28377  0.82810  0.77735  Biso   1.000  N
  N3       1.0000 0.57934  0.46607  0.52774  Biso   1.000  N
  N4       1.0000 0.92066  0.53393  0.02775  Biso   1.000  N
  N5       1.0000 0.71625  0.67192  0.77732  Biso   1.000  N
  N6       1.0000 0.78377  0.32810  0.27731  Biso   1.000  N
  N7       1.0000 0.07936  0.96608  0.02777  Biso   1.000  N
  N8       1.0000 0.42173  0.03402  0.52826  Biso   1.000  N
  N9       1.0000 0.78377  0.82810  0.72265  Biso   1.000  N
  N10      1.0000 0.71637  0.17201  0.22253  Biso   1.000  N
  N11      1.0000 0.42066  0.53393  0.47225  Biso   1.000  N
  N12      1.0000 0.07934  0.46607  0.97226  Biso   1.000  N
  N13      1.0000 0.28377  0.32810  0.22269  Biso   1.000  N
  N14      1.0000 0.21625  0.67192  0.72268  Biso   1.000  N
  N15      1.0000 0.92173  0.03402  0.97174  Biso   1.000  N
  N16      1.0000 0.57936  0.96608  0.47223  Biso   1.000  N
  C1       1.0000 0.19422  0.21019  0.22308  Biso   1.000  C
  C2       1.0000 0.30587  0.78986  0.72303  Biso   1.000  C
  C3       1.0000 0.54157  0.44349  0.47315  Biso   1.000  C
  C4       1.0000 0.95843  0.55652  0.97315  Biso   1.000  C
  C5       1.0000 0.69415  0.71016  0.72302  Biso   1.000  C
  C6       1.0000 0.80586  0.28986  0.22300  Biso   1.000  C
  C7       1.0000 0.04160  0.94348  0.97314  Biso   1.000  C
  C8       1.0000 0.45953  0.05645  0.47342  Biso   1.000  C
  C9       1.0000 0.80587  0.78986  0.77697  Biso   1.000  C
  C10      1.0000 0.69422  0.21019  0.27692  Biso   1.000  C
  C11      1.0000 0.45843  0.55652  0.52685  Biso   1.000  C
  C12      1.0000 0.04157  0.44349  0.02685  Biso   1.000  C
  C13      1.0000 0.30586  0.28986  0.27700  Biso   1.000  C
  C14      1.0000 0.19415  0.71016  0.77698  Biso   1.000  C
  C15      1.0000 0.95953  0.05645  0.02658  Biso   1.000  C
  C16      1.0000 0.54160  0.94348  0.52686  Biso   1.000  C
  F1       1.0000 0.15340  0.23548  0.27278  Biso   1.000  F
  F2       1.0000 0.34663  0.76452  0.77279  Biso   1.000  F
  F3       1.0000 0.51751  0.40209  0.52276  Biso   1.000  F
  F4       1.0000 0.98249  0.59791  0.02277  Biso   1.000  F
  F5       1.0000 0.65338  0.73548  0.77278  Biso   1.000  F
  F6       1.0000 0.84662  0.26452  0.27278  Biso   1.000  F
  F7       1.0000 0.01752  0.90210  0.02277  Biso   1.000  F
  F8       1.0000 0.48439  0.09758  0.52270  Biso   1.000  F
  F9       1.0000 0.84663  0.76452  0.72721  Biso   1.000  F
  F10      1.0000 0.65340  0.23548  0.22722  Biso   1.000  F
  F11      1.0000 0.48249  0.59791  0.47723  Biso   1.000  F
  F12      1.0000 0.01751  0.40209  0.97724  Biso   1.000  F
  F13      1.0000 0.34662  0.26452  0.22722  Biso   1.000  F
  F14      1.0000 0.15338  0.73548  0.72722  Biso   1.000  F
  F15      1.0000 0.98439  0.09758  0.97730  Biso   1.000  F
  F16      1.0000 0.51752  0.90210  0.47723  Biso   1.000  F
  C17      1.0000 0.20900  0.22464  0.11888  Biso   1.000  C
  C18      1.0000 0.29105  0.77539  0.61886  Biso   1.000  C
  C19      1.0000 0.52663  0.45819  0.36913  Biso   1.000  C
  C20      1.0000 0.97337  0.54182  0.86913  Biso   1.000  C
  C21      1.0000 0.70897  0.72464  0.61885  Biso   1.000  C
  C22      1.0000 0.79105  0.27539  0.11883  Biso   1.000  C
  C23      1.0000 0.02669  0.95816  0.86909  Biso   1.000  C
  C24      1.0000 0.47386  0.04180  0.36904  Biso   1.000  C
  C25      1.0000 0.79105  0.77539  0.88114  Biso   1.000  C
  C26      1.0000 0.70900  0.22464  0.38112  Biso   1.000  C
  C27      1.0000 0.47337  0.54182  0.63087  Biso   1.000  C
  C28      1.0000 0.02663  0.45819  0.13087  Biso   1.000  C
  C29      1.0000 0.29105  0.27539  0.38117  Biso   1.000  C
  C30      1.0000 0.20897  0.72464  0.88115  Biso   1.000  C
  C31      1.0000 0.97386  0.04180  0.13096  Biso   1.000  C
  C32      1.0000 0.52669  0.95816  0.63091  Biso   1.000  C
  F17      1.0000 0.18206  0.26220  0.06523  Biso   1.000  F
  F18      1.0000 0.31795  0.73779  0.56523  Biso   1.000  F
  F19      1.0000 0.48914  0.43105  0.31568  Biso   1.000  F
  F20      1.0000 0.01086  0.56895  0.81568  Biso   1.000  F
  F21      1.0000 0.68205  0.76221  0.56522  Biso   1.000  F
  F22      1.0000 0.81795  0.23779  0.06522  Biso   1.000  F
  F23      1.0000 0.98917  0.93105  0.81567  Biso   1.000  F
  F24      1.0000 0.51110  0.06899  0.31519  Biso   1.000  F
  F25      1.0000 0.81795  0.73779  0.93477  Biso   1.000  F
  F26      1.0000 0.68206  0.26220  0.43477  Biso   1.000  F
  F27      1.0000 0.51086  0.56895  0.68432  Biso   1.000  F
  F28      1.0000 0.98914  0.43105  0.18432  Biso   1.000  F
  F29      1.0000 0.31795  0.23779  0.43478  Biso   1.000  F
  F30      1.0000 0.18205  0.76221  0.93478  Biso   1.000  F
  F31      1.0000 0.01110  0.06899  0.18481  Biso   1.000  F
  F32      1.0000 0.48917  0.93105  0.68433  Biso   1.000  F
  C33      1.0000 0.25160  0.19995  0.06958  Biso   1.000  C
  C34      1.0000 0.24847  0.80010  0.56957  Biso   1.000  C
  C35      1.0000 0.55098  0.50090  0.31976  Biso   1.000  C
  C36      1.0000 0.94901  0.49911  0.81977  Biso   1.000  C
  C37      1.0000 0.75156  0.69994  0.56955  Biso   1.000  C
  C38      1.0000 0.74846  0.30010  0.06953  Biso   1.000  C
  C39      1.0000 0.05107  0.00084  0.81970  Biso   1.000  C
  C40      1.0000 0.44925  0.99922  0.31976  Biso   1.000  C
  C41      1.0000 0.74847  0.80010  0.93043  Biso   1.000  C
  C42      1.0000 0.75160  0.19995  0.43042  Biso   1.000  C
  C43      1.0000 0.44901  0.49911  0.68023  Biso   1.000  C
  C44      1.0000 0.05098  0.50090  0.18024  Biso   1.000  C
  C45      1.0000 0.24846  0.30010  0.43047  Biso   1.000  C
  C46      1.0000 0.25156  0.69994  0.93045  Biso   1.000  C
  C47      1.0000 0.94925  0.99922  0.18024  Biso   1.000  C
  C48      1.0000 0.55107  0.00084  0.68030  Biso   1.000  C
  B1       1.0000 0.26673  0.21694  0.94655  Biso   1.000  B
  B2       1.0000 0.23336  0.78312  0.44653  Biso   1.000  B
  B3       1.0000 0.53373  0.51605  0.19682  Biso   1.000  B
  B4       1.0000 0.96627  0.48395  0.69683  Biso   1.000  B
  B5       1.0000 0.76667  0.71694  0.44652  Biso   1.000  B
  B6       1.0000 0.73334  0.28311  0.94650  Biso   1.000  B
  B7       1.0000 0.03389  0.01596  0.69671  Biso   1.000  B
  B8       1.0000 0.46630  0.98409  0.19668  Biso   1.000  B
  B9       1.0000 0.73336  0.78312  0.05347  Biso   1.000  B
  B10      1.0000 0.76673  0.21694  0.55345  Biso   1.000  B
  B11      1.0000 0.46627  0.48395  0.80317  Biso   1.000  B
  B12      1.0000 0.03373  0.51605  0.30318  Biso   1.000  B
  B13      1.0000 0.23334  0.28311  0.55350  Biso   1.000  B
  B14      1.0000 0.26667  0.71694  0.05348  Biso   1.000  B
  B15      1.0000 0.96630  0.98409  0.30332  Biso   1.000  B
  B16      1.0000 0.53389  0.01596  0.80329  Biso   1.000  B
  C49      1.0000 0.31370  0.18528  0.89383  Biso   1.000  C
  C50      1.0000 0.18650  0.81493  0.39384  Biso   1.000  C
  C51      1.0000 0.56528  0.56288  0.14370  Biso   1.000  C
  C52      1.0000 0.93472  0.43712  0.64372  Biso   1.000  C
  C53      1.0000 0.81362  0.68525  0.39387  Biso   1.000  C
  C54      1.0000 0.68643  0.31487  0.89385  Biso   1.000  C
  C55      1.0000 0.06545  0.06279  0.64362  Biso   1.000  C
  C56      1.0000 0.43470  0.93723  0.14380  Biso   1.000  C
  C57      1.0000 0.68650  0.81493  0.10616  Biso   1.000  C
  C58      1.0000 0.81370  0.18528  0.60617  Biso   1.000  C
  C59      1.0000 0.43472  0.43712  0.85628  Biso   1.000  C
  C60      1.0000 0.06528  0.56288  0.35630  Biso   1.000  C
  C61      1.0000 0.18643  0.31487  0.60615  Biso   1.000  C
  C62      1.0000 0.31362  0.68525  0.10613  Biso   1.000  C
  C63      1.0000 0.93470  0.93723  0.35620  Biso   1.000  C
  C64      1.0000 0.56545  0.06279  0.85638  Biso   1.000  C
  N17      1.0000 0.34657  0.16230  0.84805  Biso   1.000  N
  N18      1.0000 0.15373  0.83810  0.34817  Biso   1.000  N
  N19      1.0000 0.58813  0.59566  0.09763  Biso   1.000  N
  N20      1.0000 0.91188  0.40433  0.59766  Biso   1.000  N
  N21      1.0000 0.84648  0.66219  0.34823  Biso   1.000  N
  N22      1.0000 0.65359  0.33796  0.84821  Biso   1.000  N
  N23      1.0000 0.08827  0.09558  0.59756  Biso   1.000  N
  N24      1.0000 0.41182  0.90441  0.09794  Biso   1.000  N
  N25      1.0000 0.65373  0.83810  0.15183  Biso   1.000  N
  N26      1.0000 0.84657  0.16230  0.65195  Biso   1.000  N
  N27      1.0000 0.41188  0.40433  0.90234  Biso   1.000  N
  N28      1.0000 0.08813  0.59566  0.40237  Biso   1.000  N
  N29      1.0000 0.15359  0.33796  0.65179  Biso   1.000  N
  N30      1.0000 0.34648  0.66219  0.15177  Biso   1.000  N
  N31      1.0000 0.91182  0.90441  0.40206  Biso   1.000  N
  N32      1.0000 0.58827  0.09558  0.90244  Biso   1.000  N
  C65      1.0000 0.21767  0.20649  0.87074  Biso   1.000  C
  C66      1.0000 0.28246  0.79356  0.37082  Biso   1.000  C
  C67      1.0000 0.54395  0.46701  0.12084  Biso   1.000  C
  C68      1.0000 0.95604  0.53300  0.62085  Biso   1.000  C
  C69      1.0000 0.71760  0.70643  0.37075  Biso   1.000  C
  C70      1.0000 0.78241  0.29352  0.87071  Biso   1.000  C
  C71      1.0000 0.04417  0.96689  0.62083  Biso   1.000  C
  C72      1.0000 0.45597  0.03314  0.12079  Biso   1.000  C
  C73      1.0000 0.78246  0.79356  0.12918  Biso   1.000  C
  C74      1.0000 0.71767  0.20649  0.62926  Biso   1.000  C
  C75      1.0000 0.45604  0.53300  0.87915  Biso   1.000  C
  C76      1.0000 0.04395  0.46701  0.37916  Biso   1.000  C
  C77      1.0000 0.28241  0.29352  0.62929  Biso   1.000  C
  C78      1.0000 0.21760  0.70643  0.12925  Biso   1.000  C
  C79      1.0000 0.95597  0.03314  0.37921  Biso   1.000  C
  C80      1.0000 0.54417  0.96689  0.87917  Biso   1.000  C
  N33      1.0000 0.18227  0.19545  0.81517  Biso   1.000  N
  N34      1.0000 0.31788  0.80464  0.31532  Biso   1.000  N
  N35      1.0000 0.55475  0.43163  0.06497  Biso   1.000  N
  N36      1.0000 0.94524  0.56837  0.56498  Biso   1.000  N
  N37      1.0000 0.68220  0.69535  0.31520  Biso   1.000  N
  N38      1.0000 0.81782  0.30455  0.81514  Biso   1.000  N
  N39      1.0000 0.05502  0.93150  0.56505  Biso   1.000  N
  N40      1.0000 0.44512  0.06855  0.06504  Biso   1.000  N
  N41      1.0000 0.81788  0.80464  0.18468  Biso   1.000  N
  N42      1.0000 0.68227  0.19545  0.68483  Biso   1.000  N
  N43      1.0000 0.44524  0.56837  0.93502  Biso   1.000  N
  N44      1.0000 0.05475  0.43163  0.43503  Biso   1.000  N
  N45      1.0000 0.31782  0.30455  0.68486  Biso   1.000  N
  N46      1.0000 0.18220  0.69535  0.18480  Biso   1.000  N
  N47      1.0000 0.94512  0.06855  0.43496  Biso   1.000  N
  N48      1.0000 0.55502  0.93150  0.93495  Biso   1.000  N
  C81      1.0000 0.28201  0.27711  0.94529  Biso   1.000  C
  C82      1.0000 0.21799  0.72298  0.44520  Biso   1.000  C
  C83      1.0000 0.47351  0.53154  0.19600  Biso   1.000  C
  C84      1.0000 0.02649  0.46847  0.69601  Biso   1.000  C
  C85      1.0000 0.78191  0.77713  0.44510  Biso   1.000  C
  C86      1.0000 0.71798  0.22297  0.94521  Biso   1.000  C
  C87      1.0000 0.97367  0.03147  0.69570  Biso   1.000  C
  C88      1.0000 0.52653  0.96860  0.19563  Biso   1.000  C
  C89      1.0000 0.71799  0.72298  0.05480  Biso   1.000  C
  C90      1.0000 0.78201  0.27711  0.55471  Biso   1.000  C
  C91      1.0000 0.52649  0.46847  0.80399  Biso   1.000  C
  C92      1.0000 0.97351  0.53154  0.30400  Biso   1.000  C
  C93      1.0000 0.21798  0.22297  0.55479  Biso   1.000  C
  C94      1.0000 0.28191  0.77713  0.05490  Biso   1.000  C
  C95      1.0000 0.02653  0.96860  0.30437  Biso   1.000  C
  C96      1.0000 0.47367  0.03147  0.80430  Biso   1.000  C
  N49      1.0000 0.29434  0.32119  0.94776  Biso   1.000  N
  N50      1.0000 0.20560  0.67892  0.44769  Biso   1.000  N
  N51      1.0000 0.42941  0.54404  0.19857  Biso   1.000  N
  N52      1.0000 0.07060  0.45598  0.69858  Biso   1.000  N
  N53      1.0000 0.79420  0.82121  0.44738  Biso   1.000  N
  N54      1.0000 0.70559  0.17891  0.94769  Biso   1.000  N
  N55      1.0000 0.92958  0.04401  0.69812  Biso   1.000  N
  N56      1.0000 0.57063  0.95611  0.19815  Biso   1.000  N
  N57      1.0000 0.70560  0.67892  0.05231  Biso   1.000  N
  N58      1.0000 0.79434  0.32119  0.55224  Biso   1.000  N
  N59      1.0000 0.57060  0.45598  0.80142  Biso   1.000  N
  N60      1.0000 0.92941  0.54404  0.30143  Biso   1.000  N
  N61      1.0000 0.20559  0.17891  0.55231  Biso   1.000  N
  N62      1.0000 0.29420  0.82121  0.05262  Biso   1.000  N
  N63      1.0000 0.07063  0.95611  0.30185  Biso   1.000  N
  N64      1.0000 0.42958  0.04401  0.80188  Biso   1.000  N
  C97      1.0000 0.27584  0.16138  0.13290  Biso   1.000  C
  C98      1.0000 0.22424  0.83869  0.63285  Biso   1.000  C
  C99      1.0000 0.58951  0.52523  0.38295  Biso   1.000  C
  C100     1.0000 0.91049  0.47478  0.88296  Biso   1.000  C
  C101     1.0000 0.77578  0.66133  0.63282  Biso   1.000  C
  C102     1.0000 0.72424  0.33869  0.13281  Biso   1.000  C
  C103     1.0000 0.08956  0.02520  0.88293  Biso   1.000  C
  C104     1.0000 0.41080  0.97496  0.38324  Biso   1.000  C
  C105     1.0000 0.72424  0.83869  0.86715  Biso   1.000  C
  C106     1.0000 0.77584  0.16138  0.36710  Biso   1.000  C
  C107     1.0000 0.41049  0.47478  0.61704  Biso   1.000  C
  C108     1.0000 0.08951  0.52523  0.11705  Biso   1.000  C
  C109     1.0000 0.22424  0.33869  0.36719  Biso   1.000  C
  C110     1.0000 0.27578  0.66133  0.86718  Biso   1.000  C
  C111     1.0000 0.91080  0.97496  0.11676  Biso   1.000  C
  C112     1.0000 0.58956  0.02520  0.61707  Biso   1.000  C
  F33      1.0000 0.32001  0.13757  0.09284  Biso   1.000  F
  F34      1.0000 0.18002  0.86244  0.59287  Biso   1.000  F
  F35      1.0000 0.61348  0.56911  0.34261  Biso   1.000  F
  F36      1.0000 0.88652  0.43090  0.84261  Biso   1.000  F
  F37      1.0000 0.81999  0.63757  0.59285  Biso   1.000  F
  F38      1.0000 0.68001  0.36244  0.09285  Biso   1.000  F
  F39      1.0000 0.11349  0.06910  0.84261  Biso   1.000  F
  F40      1.0000 0.38660  0.93114  0.34284  Biso   1.000  F
  F41      1.0000 0.68002  0.86244  0.90713  Biso   1.000  F
  F42      1.0000 0.82001  0.13757  0.40716  Biso   1.000  F
  F43      1.0000 0.38652  0.43090  0.65739  Biso   1.000  F
  F44      1.0000 0.11348  0.56911  0.15739  Biso   1.000  F
  F45      1.0000 0.18001  0.36244  0.40715  Biso   1.000  F
  F46      1.0000 0.31999  0.63757  0.90715  Biso   1.000  F
  F47      1.0000 0.88660  0.93114  0.15716  Biso   1.000  F
  F48      1.0000 0.61349  0.06910  0.65739  Biso   1.000  F
  C113     1.0000 0.25755  0.14555  0.23428  Biso   1.000  C
  C114     1.0000 0.24261  0.85458  0.73413  Biso   1.000  C
  C115     1.0000 0.60536  0.50735  0.48460  Biso   1.000  C
  C116     1.0000 0.89464  0.49265  0.98461  Biso   1.000  C
  C117     1.0000 0.75741  0.64544  0.73409  Biso   1.000  C
  C118     1.0000 0.74261  0.35458  0.23409  Biso   1.000  C
  C119     1.0000 0.10539  0.00735  0.98462  Biso   1.000  C
  C120     1.0000 0.39530  0.99293  0.48511  Biso   1.000  C
  C121     1.0000 0.74261  0.85458  0.76587  Biso   1.000  C
  C122     1.0000 0.75755  0.14555  0.26572  Biso   1.000  C
  C123     1.0000 0.39464  0.49265  0.51539  Biso   1.000  C
  C124     1.0000 0.10536  0.50735  0.01540  Biso   1.000  C
  C125     1.0000 0.24261  0.35458  0.26591  Biso   1.000  C
  C126     1.0000 0.25741  0.64544  0.76591  Biso   1.000  C
  C127     1.0000 0.89530  0.99293  0.01489  Biso   1.000  C
  C128     1.0000 0.60539  0.00735  0.51538  Biso   1.000  C
  B17      1.0000 0.28128  0.09672  0.30420  Biso   1.000  B
  B18      1.0000 0.21894  0.90344  0.80404  Biso   1.000  B
  B19      1.0000 0.65378  0.53151  0.55495  Biso   1.000  B
  B20      1.0000 0.84622  0.46850  0.05497  Biso   1.000  B
  B21      1.0000 0.78109  0.59658  0.80398  Biso   1.000  B
  B22      1.0000 0.71892  0.40344  0.30398  Biso   1.000  B
  B23      1.0000 0.15381  0.03153  0.05495  Biso   1.000  B
  B24      1.0000 0.34677  0.96901  0.55554  Biso   1.000  B
  B25      1.0000 0.71894  0.90344  0.69596  Biso   1.000  B
  B26      1.0000 0.78128  0.09672  0.19580  Biso   1.000  B
  B27      1.0000 0.34622  0.46850  0.44503  Biso   1.000  B
  B28      1.0000 0.15378  0.53151  0.94505  Biso   1.000  B
  B29      1.0000 0.21892  0.40344  0.19602  Biso   1.000  B
  B30      1.0000 0.28109  0.59658  0.69602  Biso   1.000  B
  B31      1.0000 0.84677  0.96901  0.94446  Biso   1.000  B
  B32      1.0000 0.65381  0.03153  0.44505  Biso   1.000  B
  C129     1.0000 0.32522  0.11587  0.38516  Biso   1.000  C
  C130     1.0000 0.17506  0.88421  0.88502  Biso   1.000  C
  C131     1.0000 0.63394  0.57556  0.63507  Biso   1.000  C
  C132     1.0000 0.86606  0.42445  0.13508  Biso   1.000  C
  C133     1.0000 0.82495  0.61582  0.88500  Biso   1.000  C
  C134     1.0000 0.67507  0.38419  0.38499  Biso   1.000  C
  C135     1.0000 0.13401  0.07563  0.13499  Biso   1.000  C
  C136     1.0000 0.36635  0.92492  0.63584  Biso   1.000  C
  C137     1.0000 0.67506  0.88421  0.61498  Biso   1.000  C
  C138     1.0000 0.82522  0.11587  0.11484  Biso   1.000  C
  C139     1.0000 0.36606  0.42445  0.36492  Biso   1.000  C
  C140     1.0000 0.13394  0.57556  0.86493  Biso   1.000  C
  C141     1.0000 0.17507  0.38419  0.11501  Biso   1.000  C
  C142     1.0000 0.32495  0.61582  0.61500  Biso   1.000  C
  C143     1.0000 0.86635  0.92492  0.86416  Biso   1.000  C
  C144     1.0000 0.63401  0.07563  0.36501  Biso   1.000  C
  N65      1.0000 0.35686  0.13024  0.44655  Biso   1.000  N
  N66      1.0000 0.14351  0.86970  0.94647  Biso   1.000  N
  N67      1.0000 0.61911  0.60731  0.69582  Biso   1.000  N
  N68      1.0000 0.88090  0.39269  0.19581  Biso   1.000  N
  N69      1.0000 0.85650  0.63035  0.94642  Biso   1.000  N
  N70      1.0000 0.64350  0.36967  0.44639  Biso   1.000  N
  N71      1.0000 0.11925  0.10744  0.19571  Biso   1.000  N
  N72      1.0000 0.38092  0.89307  0.69664  Biso   1.000  N
  N73      1.0000 0.64351  0.86970  0.55353  Biso   1.000  N
  N74      1.0000 0.85686  0.13024  0.05345  Biso   1.000  N
  N75      1.0000 0.38090  0.39269  0.30419  Biso   1.000  N
  N76      1.0000 0.11911  0.60731  0.80418  Biso   1.000  N
  N77      1.0000 0.14350  0.36967  0.05361  Biso   1.000  N
  N78      1.0000 0.35650  0.63035  0.55358  Biso   1.000  N
  N79      1.0000 0.88092  0.89307  0.80336  Biso   1.000  N
  N80      1.0000 0.61925  0.10744  0.30429  Biso   1.000  N
  C145     1.0000 0.23494  0.07159  0.37243  Biso   1.000  C
  C146     1.0000 0.26527  0.92856  0.87230  Biso   1.000  C
  C147     1.0000 0.67888  0.48540  0.62404  Biso   1.000  C
  C148     1.0000 0.82113  0.51462  0.12406  Biso   1.000  C
  C149     1.0000 0.73475  0.57144  0.87218  Biso   1.000  C
  C150     1.0000 0.76526  0.42859  0.37215  Biso   1.000  C
  C151     1.0000 0.17889  0.98546  0.12421  Biso   1.000  C
  C152     1.0000 0.32170  0.01522  0.62442  Biso   1.000  C
  C153     1.0000 0.76527  0.92856  0.62770  Biso   1.000  C
  C154     1.0000 0.73494  0.07159  0.12757  Biso   1.000  C
  C155     1.0000 0.32113  0.51462  0.37594  Biso   1.000  C
  C156     1.0000 0.17888  0.48540  0.87596  Biso   1.000  C
  C157     1.0000 0.26526  0.42859  0.12785  Biso   1.000  C
  C158     1.0000 0.23475  0.57144  0.62782  Biso   1.000  C
  C159     1.0000 0.82170  0.01522  0.87558  Biso   1.000  C
  C160     1.0000 0.67889  0.98546  0.37579  Biso   1.000  C
  N81      1.0000 0.20004  0.05317  0.42051  Biso   1.000  N
  N82      1.0000 0.30011  0.94701  0.92050  Biso   1.000  N
  N83      1.0000 0.69713  0.45054  0.67267  Biso   1.000  N
  N84      1.0000 0.80289  0.54949  0.17269  Biso   1.000  N
  N85      1.0000 0.69988  0.55302  0.92033  Biso   1.000  N
  N86      1.0000 0.80014  0.44703  0.42027  Biso   1.000  N
  N87      1.0000 0.19712  0.95066  0.17303  Biso   1.000  N
  N88      1.0000 0.30339  0.05007  0.67294  Biso   1.000  N
  N89      1.0000 0.80011  0.94701  0.57950  Biso   1.000  N
  N90      1.0000 0.70004  0.05317  0.07949  Biso   1.000  N
  N91      1.0000 0.30289  0.54949  0.32731  Biso   1.000  N
  N92      1.0000 0.19713  0.45054  0.82733  Biso   1.000  N
  N93      1.0000 0.30014  0.44703  0.07973  Biso   1.000  N
  N94      1.0000 0.19988  0.55302  0.57967  Biso   1.000  N
  N95      1.0000 0.80339  0.05007  0.82706  Biso   1.000  N
  N96      1.0000 0.69712  0.95066  0.32697  Biso   1.000  N
  C161     1.0000 0.30437  0.05113  0.23123  Biso   1.000  C
  C162     1.0000 0.19587  0.94904  0.73110  Biso   1.000  C
  C163     1.0000 0.69947  0.55459  0.48239  Biso   1.000  C
  C164     1.0000 0.80053  0.44543  0.98241  Biso   1.000  C
  C165     1.0000 0.80426  0.55102  0.73107  Biso   1.000  C
  C166     1.0000 0.69574  0.44900  0.23106  Biso   1.000  C
  C167     1.0000 0.19949  0.05456  0.98234  Biso   1.000  C
  C168     1.0000 0.30101  0.94598  0.48302  Biso   1.000  C
  C169     1.0000 0.69587  0.94904  0.76890  Biso   1.000  C
  C170     1.0000 0.80437  0.05113  0.26877  Biso   1.000  C
  C171     1.0000 0.30053  0.44543  0.51759  Biso   1.000  C
  C172     1.0000 0.19947  0.55459  0.01761  Biso   1.000  C
  C173     1.0000 0.19574  0.44900  0.26894  Biso   1.000  C
  C174     1.0000 0.30426  0.55102  0.76893  Biso   1.000  C
  C175     1.0000 0.80101  0.94598  0.01698  Biso   1.000  C
  C176     1.0000 0.69949  0.05456  0.51766  Biso   1.000  C
  N97      1.0000 0.32044  0.01660  0.17858  Biso   1.000  N
  N98      1.0000 0.17985  0.98359  0.67845  Biso   1.000  N
  N99      1.0000 0.73397  0.57075  0.42989  Biso   1.000  N
  N100     1.0000 0.76603  0.42927  0.92991  Biso   1.000  N
  N101     1.0000 0.82042  0.51651  0.67846  Biso   1.000  N
  N102     1.0000 0.67959  0.48349  0.17843  Biso   1.000  N
  N103     1.0000 0.23398  0.07071  0.92979  Biso   1.000  N
  N104     1.0000 0.26647  0.92981  0.43066  Biso   1.000  N
  N105     1.0000 0.67985  0.98359  0.82155  Biso   1.000  N
  N106     1.0000 0.82044  0.01660  0.32142  Biso   1.000  N
  N107     1.0000 0.26603  0.42927  0.57009  Biso   1.000  N
  N108     1.0000 0.23397  0.57075  0.07011  Biso   1.000  N
  N109     1.0000 0.17959  0.48349  0.32157  Biso   1.000  N
  N110     1.0000 0.32042  0.51651  0.82154  Biso   1.000  N
  N111     1.0000 0.76647  0.92981  0.06934  Biso   1.000  N
  N112     1.0000 0.73398  0.07071  0.57021  Biso   1.000  N
  K1       1.0000 0.30054  0.90528  0.20147  Biso   1.000  K
  K2       1.0000 0.19973  0.09491  0.70099  Biso   1.000  K
  K3       1.0000 0.84518  0.55044  0.45015  Biso   1.000  K
  K4       1.0000 0.65481  0.44959  0.95014  Biso   1.000  K
  K5       1.0000 0.80049  0.40514  0.70108  Biso   1.000  K
  K6       1.0000 0.69950  0.59485  0.20098  Biso   1.000  K
  K7       1.0000 0.34516  0.05048  0.95001  Biso   1.000  K
  K8       1.0000 0.15509  0.94970  0.45016  Biso   1.000  K
  K9       1.0000 0.69973  0.09491  0.79901  Biso   1.000  K
  K10      1.0000 0.80054  0.90528  0.29853  Biso   1.000  K
  K11      1.0000 0.15481  0.44959  0.54985  Biso   1.000  K
  K12      1.0000 0.34518  0.55044  0.04985  Biso   1.000  K
  K13      1.0000 0.19950  0.59485  0.29902  Biso   1.000  K
  K14      1.0000 0.30049  0.40514  0.79892  Biso   1.000  K
  K15      1.0000 0.65509  0.94970  0.04984  Biso   1.000  K
  K16      1.0000 0.84516  0.05048  0.54999  Biso   1.000  K
  K17      1.0000 0.39111  0.12570  0.65844  Biso   1.000  K
  K18      1.0000 0.10967  0.87473  0.15845  Biso   1.000  K
  K19      1.0000 0.62441  0.64096  0.90805  Biso   1.000  K
  K20      1.0000 0.87558  0.35907  0.40806  Biso   1.000  K
  K21      1.0000 0.89031  0.62543  0.15835  Biso   1.000  K
  K22      1.0000 0.60972  0.37460  0.65832  Biso   1.000  K
  K23      1.0000 0.12449  0.14097  0.40804  Biso   1.000  K
  K24      1.0000 0.37549  0.85899  0.90850  Biso   1.000  K
  K25      1.0000 0.60967  0.87473  0.34155  Biso   1.000  K
  K26      1.0000 0.89111  0.12570  0.84156  Biso   1.000  K
  K27      1.0000 0.37558  0.35907  0.09194  Biso   1.000  K
  K28      1.0000 0.12441  0.64096  0.59195  Biso   1.000  K
  K29      1.0000 0.10972  0.37460  0.84168  Biso   1.000  K
  K30      1.0000 0.39031  0.62543  0.34165  Biso   1.000  K
  K31      1.0000 0.87549  0.85899  0.59150  Biso   1.000  K
  K32      1.0000 0.62449  0.14097  0.09196  Biso   1.000  K
