data_image0
_cell_length_a       6.87681
_cell_length_b       15.2498
_cell_length_c       15.2433
_cell_angle_alpha    117.763
_cell_angle_beta     98.6552
_cell_angle_gamma    98.6486

_symmetry_space_group_name_H-M    "P 1"
_symmetry_int_tables_number       1

loop_
  _symmetry_equiv_pos_as_xyz
  'x, y, z'

loop_
  _atom_site_label
  _atom_site_occupancy
  _atom_site_fract_x
  _atom_site_fract_y
  _atom_site_fract_z
  _atom_site_thermal_displace_type
  _atom_site_B_iso_or_equiv
  _atom_site_type_symbol
  C1       1.0000 0.14620  0.82834  0.39547  Biso   1.000  C
  C2       1.0000 0.75119  0.60464  0.43276  Biso   1.000  C
  C3       1.0000 0.31845  0.56723  0.17187  Biso   1.000  C
  C4       1.0000 0.85454  0.17165  0.60473  Biso   1.000  C
  C5       1.0000 0.24903  0.39504  0.56698  Biso   1.000  C
  C6       1.0000 0.68207  0.43286  0.82808  Biso   1.000  C
  C7       1.0000 0.33064  0.91456  0.45013  Biso   1.000  C
  C8       1.0000 0.88064  0.54990  0.46440  Biso   1.000  C
  C9       1.0000 0.41635  0.53566  0.08554  Biso   1.000  C
  C10      1.0000 0.67019  0.08540  0.55004  Biso   1.000  C
  C11      1.0000 0.11973  0.44992  0.53548  Biso   1.000  C
  C12      1.0000 0.58421  0.46453  0.91443  Biso   1.000  C
  C13      1.0000 0.53079  0.89943  0.46411  Biso   1.000  C
  C14      1.0000 0.06692  0.53597  0.43544  Biso   1.000  C
  C15      1.0000 0.63160  0.56472  0.10052  Biso   1.000  C
  C16      1.0000 0.47004  0.10052  0.53607  Biso   1.000  C
  C17      1.0000 0.93353  0.46393  0.56451  Biso   1.000  C
  C18      1.0000 0.36899  0.43544  0.89946  Biso   1.000  C
  C19      1.0000 0.30528  0.01391  0.48613  Biso   1.000  C
  C20      1.0000 0.81885  0.51383  0.52769  Biso   1.000  C
  C21      1.0000 0.29124  0.47230  0.98621  Biso   1.000  C
  C22      1.0000 0.69557  0.98604  0.51401  Biso   1.000  C
  C23      1.0000 0.18157  0.48605  0.47224  Biso   1.000  C
  C24      1.0000 0.70931  0.52791  0.01375  Biso   1.000  C
  Co1      1.0000 0.98329  0.59587  0.26679  Biso   1.000  Co
  Co2      1.0000 0.71640  0.73330  0.32904  Biso   1.000  Co
  Co3      1.0000 0.38712  0.67112  0.40425  Biso   1.000  Co
  Co4      1.0000 0.01732  0.40409  0.73316  Biso   1.000  Co
  Co5      1.0000 0.28422  0.26669  0.67100  Biso   1.000  Co
  Co6      1.0000 0.61334  0.32881  0.59571  Biso   1.000  Co
  H1       1.0000 0.15256  0.02451  0.47494  Biso   1.000  H
  H2       1.0000 0.67716  0.52498  0.54930  Biso   1.000  H
  H3       1.0000 0.12796  0.45062  0.97578  Biso   1.000  H
  H4       1.0000 0.84831  0.97545  0.52517  Biso   1.000  H
  H5       1.0000 0.32320  0.47488  0.45057  Biso   1.000  H
  H6       1.0000 0.87260  0.54955  0.02415  Biso   1.000  H
  O1       1.0000 0.16866  0.73670  0.36292  Biso   1.000  O
  O2       1.0000 0.80700  0.63746  0.37396  Biso   1.000  O
  O3       1.0000 0.43282  0.62636  0.26348  Biso   1.000  O
  O4       1.0000 0.83193  0.26326  0.63723  Biso   1.000  O
  O5       1.0000 0.19315  0.36221  0.62577  Biso   1.000  O
  O6       1.0000 0.56756  0.37393  0.73647  Biso   1.000  O
  O7       1.0000 0.97127  0.84508  0.38063  Biso   1.000  O
  O8       1.0000 0.59079  0.61930  0.46405  Biso   1.000  O
  O9       1.0000 0.12681  0.53562  0.15521  Biso   1.000  O
  O10      1.0000 0.02950  0.15493  0.61958  Biso   1.000  O
  O11      1.0000 0.40930  0.38026  0.53558  Biso   1.000  O
  O12      1.0000 0.87380  0.46418  0.84473  Biso   1.000  O
  O13      1.0000 0.56908  0.80628  0.43245  Biso   1.000  O
  O14      1.0000 0.13713  0.56759  0.37392  Biso   1.000  O
  O15      1.0000 0.76340  0.62622  0.19363  Biso   1.000  O
  O16      1.0000 0.43172  0.19366  0.56777  Biso   1.000  O
  O17      1.0000 0.86337  0.43236  0.62608  Biso   1.000  O
  O18      1.0000 0.23723  0.37380  0.80635  Biso   1.000  O
