data_image0
_cell_length_a       24.5619
_cell_length_b       24.5702
_cell_length_c       24.5702
_cell_angle_alpha    60.2866
_cell_angle_beta     60.2819
_cell_angle_gamma    60.2818

_symmetry_space_group_name_H-M    "P 1"
_symmetry_int_tables_number       1

loop_
  _symmetry_equiv_pos_as_xyz
  'x, y, z'

loop_
  _atom_site_label
  _atom_site_occupancy
  _atom_site_fract_x
  _atom_site_fract_y
  _atom_site_fract_z
  _atom_site_thermal_displace_type
  _atom_site_B_iso_or_equiv
  _atom_site_type_symbol
  C1       1.0000 0.64603  0.85427  0.85427  Biso   1.000  C
  C2       1.0000 0.85392  0.64580  0.64580  Biso   1.000  C
  C3       1.0000 0.85429  0.85422  0.64606  Biso   1.000  C
  C4       1.0000 0.64579  0.64583  0.85389  Biso   1.000  C
  C5       1.0000 0.85429  0.64606  0.85422  Biso   1.000  C
  C6       1.0000 0.64579  0.85389  0.64583  Biso   1.000  C
  C7       1.0000 0.35397  0.14573  0.14573  Biso   1.000  C
  C8       1.0000 0.14608  0.35420  0.35420  Biso   1.000  C
  C9       1.0000 0.35421  0.14611  0.35417  Biso   1.000  C
  C10      1.0000 0.14571  0.35394  0.14578  Biso   1.000  C
  C11      1.0000 0.35421  0.35417  0.14611  Biso   1.000  C
  C12      1.0000 0.14571  0.14578  0.35394  Biso   1.000  C
  C13      1.0000 0.60307  0.89707  0.89707  Biso   1.000  C
  C14      1.0000 0.89677  0.60298  0.60298  Biso   1.000  C
  C15      1.0000 0.89709  0.89703  0.60309  Biso   1.000  C
  C16      1.0000 0.60297  0.60300  0.89673  Biso   1.000  C
  C17      1.0000 0.89709  0.60309  0.89703  Biso   1.000  C
  C18      1.0000 0.60297  0.89673  0.60300  Biso   1.000  C
  C19      1.0000 0.39693  0.10293  0.10293  Biso   1.000  C
  C20      1.0000 0.10323  0.39702  0.39702  Biso   1.000  C
  C21      1.0000 0.39703  0.10327  0.39700  Biso   1.000  C
  C22      1.0000 0.10291  0.39691  0.10297  Biso   1.000  C
  C23      1.0000 0.39703  0.39700  0.10327  Biso   1.000  C
  C24      1.0000 0.10291  0.10297  0.39691  Biso   1.000  C
  C25      1.0000 0.58249  0.86865  0.96651  Biso   1.000  C
  C26      1.0000 0.58249  0.96651  0.86865  Biso   1.000  C
  C27      1.0000 0.96623  0.58271  0.58271  Biso   1.000  C
  C28      1.0000 0.86845  0.58220  0.58220  Biso   1.000  C
  C29      1.0000 0.86863  0.96646  0.58252  Biso   1.000  C
  C30      1.0000 0.96656  0.86862  0.58248  Biso   1.000  C
  C31      1.0000 0.58273  0.58274  0.96617  Biso   1.000  C
  C32      1.0000 0.58217  0.58219  0.86846  Biso   1.000  C
  C33      1.0000 0.96656  0.58248  0.86862  Biso   1.000  C
  C34      1.0000 0.86863  0.58252  0.96646  Biso   1.000  C
  C35      1.0000 0.58273  0.96617  0.58274  Biso   1.000  C
  C36      1.0000 0.58217  0.86846  0.58219  Biso   1.000  C
  C37      1.0000 0.41751  0.13135  0.03349  Biso   1.000  C
  C38      1.0000 0.41751  0.03349  0.13135  Biso   1.000  C
  C39      1.0000 0.13155  0.41781  0.41781  Biso   1.000  C
  C40      1.0000 0.03377  0.41729  0.41729  Biso   1.000  C
  C41      1.0000 0.41727  0.03383  0.41726  Biso   1.000  C
  C42      1.0000 0.41783  0.13154  0.41781  Biso   1.000  C
  C43      1.0000 0.13137  0.41748  0.03354  Biso   1.000  C
  C44      1.0000 0.03344  0.41752  0.13138  Biso   1.000  C
  C45      1.0000 0.41783  0.41781  0.13154  Biso   1.000  C
  C46      1.0000 0.41727  0.41726  0.03383  Biso   1.000  C
  C47      1.0000 0.13137  0.03354  0.41748  Biso   1.000  C
  C48      1.0000 0.03344  0.13138  0.41752  Biso   1.000  C
  C49      1.0000 0.54247  0.90872  0.00631  Biso   1.000  C
  C50      1.0000 0.54247  0.00631  0.90873  Biso   1.000  C
  C51      1.0000 0.00613  0.54277  0.54277  Biso   1.000  C
  C52      1.0000 0.90862  0.54225  0.54225  Biso   1.000  C
  C53      1.0000 0.90870  0.00628  0.54250  Biso   1.000  C
  C54      1.0000 0.00635  0.90871  0.54246  Biso   1.000  C
  C55      1.0000 0.54279  0.54279  0.00608  Biso   1.000  C
  C56      1.0000 0.54223  0.54223  0.90865  Biso   1.000  C
  C57      1.0000 0.00635  0.54246  0.90871  Biso   1.000  C
  C58      1.0000 0.90870  0.54250  0.00628  Biso   1.000  C
  C59      1.0000 0.54279  0.00608  0.54279  Biso   1.000  C
  C60      1.0000 0.54223  0.90864  0.54223  Biso   1.000  C
  C61      1.0000 0.45753  0.09128  0.99369  Biso   1.000  C
  C62      1.0000 0.45753  0.99369  0.09128  Biso   1.000  C
  C63      1.0000 0.09137  0.45775  0.45775  Biso   1.000  C
  C64      1.0000 0.99387  0.45723  0.45723  Biso   1.000  C
  C65      1.0000 0.45721  0.99392  0.45721  Biso   1.000  C
  C66      1.0000 0.45777  0.09135  0.45777  Biso   1.000  C
  C67      1.0000 0.09130  0.45750  0.99372  Biso   1.000  C
  C68      1.0000 0.99365  0.45754  0.09129  Biso   1.000  C
  C69      1.0000 0.45777  0.45777  0.09136  Biso   1.000  C
  C70      1.0000 0.45721  0.45721  0.99392  Biso   1.000  C
  C71      1.0000 0.09130  0.99372  0.45750  Biso   1.000  C
  C72      1.0000 0.99365  0.09129  0.45754  Biso   1.000  C
  C73      1.0000 0.52132  0.97868  0.97868  Biso   1.000  C
  C74      1.0000 0.97861  0.52133  0.52133  Biso   1.000  C
  C75      1.0000 0.97869  0.97867  0.52132  Biso   1.000  C
  C76      1.0000 0.52133  0.52133  0.97860  Biso   1.000  C
  C77      1.0000 0.97869  0.52132  0.97867  Biso   1.000  C
  C78      1.0000 0.52133  0.97860  0.52133  Biso   1.000  C
  C79      1.0000 0.47868  0.02132  0.02132  Biso   1.000  C
  C80      1.0000 0.02139  0.47867  0.47867  Biso   1.000  C
  C81      1.0000 0.47867  0.02140  0.47867  Biso   1.000  C
  C82      1.0000 0.02131  0.47868  0.02133  Biso   1.000  C
  C83      1.0000 0.47867  0.47867  0.02140  Biso   1.000  C
  C84      1.0000 0.02131  0.02133  0.47868  Biso   1.000  C
  H1       1.0000 0.59836  0.81485  0.98858  Biso   1.000  H
  H2       1.0000 0.59836  0.98858  0.81485  Biso   1.000  H
  H3       1.0000 0.98825  0.59877  0.59877  Biso   1.000  H
  H4       1.0000 0.81464  0.59785  0.59785  Biso   1.000  H
  H5       1.0000 0.81481  0.98851  0.59841  Biso   1.000  H
  H6       1.0000 0.98865  0.81482  0.59835  Biso   1.000  H
  H7       1.0000 0.59881  0.59881  0.98815  Biso   1.000  H
  H8       1.0000 0.59781  0.59784  0.81467  Biso   1.000  H
  H9       1.0000 0.98865  0.59835  0.81482  Biso   1.000  H
  H10      1.0000 0.81481  0.59841  0.98851  Biso   1.000  H
  H11      1.0000 0.59881  0.98815  0.59881  Biso   1.000  H
  H12      1.0000 0.59781  0.81467  0.59784  Biso   1.000  H
  H13      1.0000 0.40164  0.18515  0.01143  Biso   1.000  H
  H14      1.0000 0.40164  0.01142  0.18515  Biso   1.000  H
  H15      1.0000 0.18536  0.40215  0.40215  Biso   1.000  H
  H16      1.0000 0.01175  0.40123  0.40123  Biso   1.000  H
  H17      1.0000 0.40119  0.01185  0.40119  Biso   1.000  H
  H18      1.0000 0.40219  0.18533  0.40216  Biso   1.000  H
  H19      1.0000 0.18519  0.40159  0.01149  Biso   1.000  H
  H20      1.0000 0.01135  0.40165  0.18518  Biso   1.000  H
  H21      1.0000 0.40219  0.40216  0.18533  Biso   1.000  H
  H22      1.0000 0.40119  0.40119  0.01185  Biso   1.000  H
  H23      1.0000 0.18519  0.01149  0.40159  Biso   1.000  H
  H24      1.0000 0.01135  0.18518  0.40165  Biso   1.000  H
  H25      1.0000 0.52761  0.88479  0.05985  Biso   1.000  H
  H26      1.0000 0.52761  0.05985  0.88479  Biso   1.000  H
  H27      1.0000 0.05968  0.52818  0.52818  Biso   1.000  H
  H28      1.0000 0.88473  0.52725  0.52725  Biso   1.000  H
  H29      1.0000 0.88473  0.05981  0.52765  Biso   1.000  H
  H30      1.0000 0.05991  0.88479  0.52757  Biso   1.000  H
  H31      1.0000 0.52823  0.52821  0.05960  Biso   1.000  H
  H32      1.0000 0.52723  0.52722  0.88478  Biso   1.000  H
  H33      1.0000 0.05991  0.52757  0.88479  Biso   1.000  H
  H34      1.0000 0.88473  0.52765  0.05981  Biso   1.000  H
  H35      1.0000 0.52823  0.05960  0.52821  Biso   1.000  H
  H36      1.0000 0.52723  0.88478  0.52722  Biso   1.000  H
  H37      1.0000 0.47239  0.11521  0.94016  Biso   1.000  H
  H38      1.0000 0.47239  0.94015  0.11521  Biso   1.000  H
  H39      1.0000 0.11527  0.47275  0.47275  Biso   1.000  H
  H40      1.0000 0.94032  0.47182  0.47182  Biso   1.000  H
  H41      1.0000 0.47177  0.94040  0.47179  Biso   1.000  H
  H42      1.0000 0.47277  0.11522  0.47278  Biso   1.000  H
  H43      1.0000 0.11527  0.47235  0.94019  Biso   1.000  H
  H44      1.0000 0.94009  0.47243  0.11521  Biso   1.000  H
  H45      1.0000 0.47277  0.47278  0.11522  Biso   1.000  H
  H46      1.0000 0.47177  0.47179  0.94040  Biso   1.000  H
  H47      1.0000 0.11527  0.94019  0.47235  Biso   1.000  H
  H48      1.0000 0.94009  0.11521  0.47243  Biso   1.000  H
  O1       1.0000 0.75000  0.74999  0.74999  Biso   1.000  O
  O2       1.0000 0.25000  0.25001  0.25001  Biso   1.000  O
  O3       1.0000 0.66270  0.79138  0.88396  Biso   1.000  O
  O4       1.0000 0.66270  0.88396  0.79138  Biso   1.000  O
  O5       1.0000 0.88368  0.66257  0.66257  Biso   1.000  O
  O6       1.0000 0.79099  0.66224  0.66225  Biso   1.000  O
  O7       1.0000 0.79137  0.88391  0.66271  Biso   1.000  O
  O8       1.0000 0.88400  0.79133  0.66276  Biso   1.000  O
  O9       1.0000 0.66258  0.66259  0.88362  Biso   1.000  O
  O10      1.0000 0.66220  0.66229  0.79098  Biso   1.000  O
  O11      1.0000 0.88400  0.66276  0.79133  Biso   1.000  O
  O12      1.0000 0.79137  0.66271  0.88391  Biso   1.000  O
  O13      1.0000 0.66258  0.88362  0.66259  Biso   1.000  O
  O14      1.0000 0.66220  0.79098  0.66229  Biso   1.000  O
  O15      1.0000 0.33730  0.20862  0.11604  Biso   1.000  O
  O16      1.0000 0.33730  0.11604  0.20862  Biso   1.000  O
  O17      1.0000 0.20901  0.33776  0.33776  Biso   1.000  O
  O18      1.0000 0.11632  0.33743  0.33743  Biso   1.000  O
  O19      1.0000 0.33742  0.11638  0.33741  Biso   1.000  O
  O20      1.0000 0.33780  0.20902  0.33771  Biso   1.000  O
  O21      1.0000 0.20863  0.33729  0.11609  Biso   1.000  O
  O22      1.0000 0.11600  0.33724  0.20867  Biso   1.000  O
  O23      1.0000 0.33780  0.33771  0.20902  Biso   1.000  O
  O24      1.0000 0.33742  0.33741  0.11639  Biso   1.000  O
  O25      1.0000 0.20863  0.11609  0.33729  Biso   1.000  O
  O26      1.0000 0.11600  0.20867  0.33724  Biso   1.000  O
  Zn1      1.0000 0.71762  0.71768  0.84761  Biso   1.000  Zn
  Zn2      1.0000 0.71762  0.84761  0.71768  Biso   1.000  Zn
  Zn3      1.0000 0.84766  0.71763  0.71763  Biso   1.000  Zn
  Zn4      1.0000 0.71724  0.71725  0.71725  Biso   1.000  Zn
  Zn5      1.0000 0.28238  0.28232  0.15239  Biso   1.000  Zn
  Zn6      1.0000 0.28238  0.15239  0.28232  Biso   1.000  Zn
  Zn7      1.0000 0.28276  0.28275  0.28275  Biso   1.000  Zn
  Zn8      1.0000 0.15234  0.28237  0.28237  Biso   1.000  Zn
