data_image0
_cell_length_a       32.8669
_cell_length_b       32.9184
_cell_length_c       32.8841
_cell_angle_alpha    109.549
_cell_angle_beta     109.469
_cell_angle_gamma    109.431

_symmetry_space_group_name_H-M    "P 1"
_symmetry_int_tables_number       1

loop_
  _symmetry_equiv_pos_as_xyz
  'x, y, z'

loop_
  _atom_site_label
  _atom_site_occupancy
  _atom_site_fract_x
  _atom_site_fract_y
  _atom_site_fract_z
  _atom_site_thermal_displace_type
  _atom_site_B_iso_or_equiv
  _atom_site_type_symbol
  Cu1      1.0000 0.93081  0.96541  0.71490  Biso   1.000  Cu
  Cu2      1.0000 0.03389  0.96548  0.74951  Biso   1.000  Cu
  Cu3      1.0000 0.03398  0.06853  0.78469  Biso   1.000  Cu
  Cu4      1.0000 0.75079  0.53411  0.46613  Biso   1.000  Cu
  Cu5      1.0000 0.78408  0.53454  0.56932  Biso   1.000  Cu
  Cu6      1.0000 0.71600  0.43124  0.46588  Biso   1.000  Cu
  Cu7      1.0000 0.56849  0.28438  0.03421  Biso   1.000  Cu
  Cu8      1.0000 0.46539  0.21487  0.93099  Biso   1.000  Cu
  Cu9      1.0000 0.46554  0.25040  0.03426  Biso   1.000  Cu
  Cu10     1.0000 0.75021  0.21616  0.78432  Biso   1.000  Cu
  Cu11     1.0000 0.71609  0.28501  0.75041  Biso   1.000  Cu
  Cu12     1.0000 0.78389  0.24960  0.71493  Biso   1.000  Cu
  H1       1.0000 0.85388  0.84831  0.64965  Biso   1.000  H
  H2       1.0000 0.99374  0.84843  0.69747  Biso   1.000  H
  H3       1.0000 0.99364  0.14528  0.79703  Biso   1.000  H
  H4       1.0000 0.85391  0.00558  0.70281  Biso   1.000  H
  H5       1.0000 0.15104  0.00562  0.80177  Biso   1.000  H
  H6       1.0000 0.15118  0.14532  0.84966  Biso   1.000  H
  H7       1.0000 0.80297  0.65098  0.50605  Biso   1.000  H
  H8       1.0000 0.84809  0.65181  0.64617  Biso   1.000  H
  H9       1.0000 0.65059  0.35430  0.34848  Biso   1.000  H
  H10      1.0000 0.69935  0.49410  0.34901  Biso   1.000  H
  H11      1.0000 0.79600  0.49429  0.64603  Biso   1.000  H
  H12      1.0000 0.70426  0.35463  0.50615  Biso   1.000  H
  H13      1.0000 0.64543  0.29623  0.99410  Biso   1.000  H
  H14      1.0000 0.50575  0.20275  0.85412  Biso   1.000  H
  H15      1.0000 0.50590  0.30300  0.15157  Biso   1.000  H
  H16      1.0000 0.64557  0.34968  0.15141  Biso   1.000  H
  H17      1.0000 0.34818  0.14976  0.85416  Biso   1.000  H
  H18      1.0000 0.34840  0.19811  0.99405  Biso   1.000  H
  H19      1.0000 0.69846  0.20450  0.84964  Biso   1.000  H
  H20      1.0000 0.65104  0.29693  0.80263  Biso   1.000  H
  H21      1.0000 0.84812  0.19659  0.70222  Biso   1.000  H
  H22      1.0000 0.80215  0.15110  0.79617  Biso   1.000  H
  H23      1.0000 0.70440  0.35006  0.69855  Biso   1.000  H
  H24      1.0000 0.79591  0.30184  0.65022  Biso   1.000  H
  C1       1.0000 0.89245  0.85734  0.66575  Biso   1.000  C
  C2       1.0000 0.91217  0.82508  0.66203  Biso   1.000  C
  C3       1.0000 0.96417  0.85740  0.69031  Biso   1.000  C
  C4       1.0000 0.96412  0.10676  0.77407  Biso   1.000  C
  C5       1.0000 0.91211  0.08706  0.74985  Biso   1.000  C
  C6       1.0000 0.89246  0.03511  0.72578  Biso   1.000  C
  C7       1.0000 0.14206  0.03515  0.80892  Biso   1.000  C
  C8       1.0000 0.17443  0.08710  0.83734  Biso   1.000  C
  C9       1.0000 0.14213  0.10680  0.83352  Biso   1.000  C
  C10      1.0000 0.80947  0.64218  0.53570  Biso   1.000  C
  C11      1.0000 0.83711  0.67468  0.58769  Biso   1.000  C
  C12      1.0000 0.83263  0.64260  0.60756  Biso   1.000  C
  C13      1.0000 0.66697  0.39284  0.35763  Biso   1.000  C
  C14      1.0000 0.66325  0.41260  0.32542  Biso   1.000  C
  C15      1.0000 0.69200  0.46453  0.35789  Biso   1.000  C
  C16      1.0000 0.77362  0.46478  0.60745  Biso   1.000  C
  C17      1.0000 0.75016  0.41284  0.58771  Biso   1.000  C
  C18      1.0000 0.72662  0.39316  0.53571  Biso   1.000  C
  C19      1.0000 0.60689  0.27342  0.96450  Biso   1.000  C
  C20      1.0000 0.58727  0.24959  0.91249  Biso   1.000  C
  C21      1.0000 0.53525  0.22551  0.89271  Biso   1.000  C
  C22      1.0000 0.53540  0.30986  0.14252  Biso   1.000  C
  C23      1.0000 0.58742  0.33793  0.17482  Biso   1.000  C
  C24      1.0000 0.60703  0.33383  0.14243  Biso   1.000  C
  C25      1.0000 0.35726  0.16603  0.89274  Biso   1.000  C
  C26      1.0000 0.32499  0.16229  0.91247  Biso   1.000  C
  C27      1.0000 0.35737  0.19087  0.96448  Biso   1.000  C
  C28      1.0000 0.69142  0.22705  0.83372  Biso   1.000  C
  C29      1.0000 0.66302  0.25062  0.83774  Biso   1.000  C
  C30      1.0000 0.66708  0.27442  0.80959  Biso   1.000  C
  C31      1.0000 0.83246  0.19003  0.72513  Biso   1.000  C
  C32      1.0000 0.83677  0.16216  0.74921  Biso   1.000  C
  C33      1.0000 0.80885  0.16668  0.77328  Biso   1.000  C
  C34      1.0000 0.72670  0.33383  0.69128  Biso   1.000  C
  C35      1.0000 0.75018  0.33763  0.66278  Biso   1.000  C
  C36      1.0000 0.77359  0.30906  0.66645  Biso   1.000  C
  C37      1.0000 0.86327  0.72715  0.61370  Biso   1.000  C
  C38      1.0000 0.88594  0.77262  0.63610  Biso   1.000  C
  C39      1.0000 0.63659  0.25031  0.86381  Biso   1.000  C
  C40      1.0000 0.61365  0.24991  0.88637  Biso   1.000  C
  C41      1.0000 0.86302  0.13594  0.74936  Biso   1.000  C
  C42      1.0000 0.88581  0.11324  0.74961  Biso   1.000  C
  C43      1.0000 0.61382  0.36399  0.22735  Biso   1.000  C
  C44      1.0000 0.63679  0.38651  0.27288  Biso   1.000  C
  C45      1.0000 0.27247  0.13603  0.88624  Biso   1.000  C
  C46      1.0000 0.22695  0.11331  0.86354  Biso   1.000  C
  C47      1.0000 0.75020  0.38663  0.61392  Biso   1.000  C
  C48      1.0000 0.75021  0.36388  0.63662  Biso   1.000  C
  N1       1.0000 0.97441  0.90509  0.70931  Biso   1.000  N
  N2       1.0000 0.92990  0.90505  0.69404  Biso   1.000  N
  N3       1.0000 0.92996  0.02488  0.73505  Biso   1.000  N
  N4       1.0000 0.97443  0.06934  0.76500  Biso   1.000  N
  N5       1.0000 0.09437  0.06939  0.80508  Biso   1.000  N
  N6       1.0000 0.09432  0.02493  0.78978  Biso   1.000  N
  N7       1.0000 0.80453  0.59482  0.57021  Biso   1.000  N
  N8       1.0000 0.79013  0.59456  0.52561  Biso   1.000  N
  N9       1.0000 0.71123  0.47470  0.40560  Biso   1.000  N
  N10      1.0000 0.69567  0.43021  0.40544  Biso   1.000  N
  N11      1.0000 0.73550  0.43058  0.52548  Biso   1.000  N
  N12      1.0000 0.76463  0.47503  0.57000  Biso   1.000  N
  N13      1.0000 0.52491  0.23445  0.93014  Biso   1.000  N
  N14      1.0000 0.56937  0.26416  0.97468  Biso   1.000  N
  N15      1.0000 0.56951  0.30552  0.09469  Biso   1.000  N
  N16      1.0000 0.52505  0.29062  0.09473  Biso   1.000  N
  N17      1.0000 0.40511  0.21005  0.97471  Biso   1.000  N
  N18      1.0000 0.40503  0.19460  0.93019  Biso   1.000  N
  N19      1.0000 0.69565  0.26557  0.79038  Biso   1.000  N
  N20      1.0000 0.71078  0.23620  0.80538  Biso   1.000  N
  N21      1.0000 0.78953  0.19503  0.76414  Biso   1.000  N
  N22      1.0000 0.80420  0.20954  0.73429  Biso   1.000  N
  N23      1.0000 0.76461  0.28982  0.69490  Biso   1.000  N
  N24      1.0000 0.73555  0.30523  0.71035  Biso   1.000  N
