data_image0
_cell_length_a       23.6757
_cell_length_b       27.956
_cell_length_c       29.5445
_cell_angle_alpha    82.2769
_cell_angle_beta     87.9631
_cell_angle_gamma    85.1706

_symmetry_space_group_name_H-M    "P 1"
_symmetry_int_tables_number       1

loop_
  _symmetry_equiv_pos_as_xyz
  'x, y, z'

loop_
  _atom_site_label
  _atom_site_occupancy
  _atom_site_fract_x
  _atom_site_fract_y
  _atom_site_fract_z
  _atom_site_thermal_displace_type
  _atom_site_B_iso_or_equiv
  _atom_site_type_symbol
  Cu1      1.0000 0.17062  0.89367  0.07733  Biso   1.000  Cu
  Cu2      1.0000 0.06151  0.84145  0.12301  Biso   1.000  Cu
  Cu3      1.0000 0.10143  0.93319  0.16015  Biso   1.000  Cu
  Cu4      1.0000 0.66166  0.11467  0.41793  Biso   1.000  Cu
  Cu5      1.0000 0.55545  0.18318  0.37041  Biso   1.000  Cu
  Cu6      1.0000 0.60272  0.08755  0.33194  Biso   1.000  Cu
  Cu7      1.0000 0.37062  0.40817  0.91023  Biso   1.000  Cu
  Cu8      1.0000 0.41675  0.33533  0.83837  Biso   1.000  Cu
  Cu9      1.0000 0.39733  0.44612  0.80872  Biso   1.000  Cu
  Cu10     1.0000 0.87400  0.57865  0.59753  Biso   1.000  Cu
  Cu11     1.0000 0.90117  0.65233  0.66599  Biso   1.000  Cu
  Cu12     1.0000 0.89608  0.54186  0.70076  Biso   1.000  Cu
  H1       1.0000 0.21286  0.81797  0.00910  Biso   1.000  H
  H2       1.0000 0.05075  0.76495  0.05387  Biso   1.000  H
  H3       1.0000 0.18251  0.01092  0.18345  Biso   1.000  H
  H4       1.0000 0.26298  0.97348  0.05758  Biso   1.000  H
  H5       1.0000 0.97137  0.80765  0.20376  Biso   1.000  H
  H6       1.0000 0.00765  0.94767  0.23796  Biso   1.000  H
  H7       1.0000 0.69006  0.17913  0.49341  Biso   1.000  H
  H8       1.0000 0.53103  0.25360  0.44604  Biso   1.000  H
  H9       1.0000 0.68520  0.99783  0.30945  Biso   1.000  H
  H10      1.0000 0.75326  0.02168  0.43802  Biso   1.000  H
  H11      1.0000 0.47363  0.23032  0.28678  Biso   1.000  H
  H12      1.0000 0.51931  0.08667  0.25083  Biso   1.000  H
  H13      1.0000 0.37362  0.33346  0.00157  Biso   1.000  H
  H14      1.0000 0.39407  0.23506  0.89970  Biso   1.000  H
  H15      1.0000 0.30085  0.53449  0.79395  Biso   1.000  H
  H16      1.0000 0.29178  0.49833  0.94114  Biso   1.000  H
  H17      1.0000 0.49484  0.30311  0.75401  Biso   1.000  H
  H18      1.0000 0.49380  0.45951  0.72945  Biso   1.000  H
  H19      1.0000 0.87626  0.64941  0.50313  Biso   1.000  H
  H20      1.0000 0.87408  0.75242  0.60054  Biso   1.000  H
  H21      1.0000 0.81225  0.45587  0.71573  Biso   1.000  H
  H22      1.0000 0.81091  0.49128  0.56843  Biso   1.000  H
  H23      1.0000 0.96363  0.68681  0.74915  Biso   1.000  H
  H24      1.0000 0.98588  0.53071  0.78178  Biso   1.000  H
  H25      1.0000 0.05657  0.74019  0.96706  Biso   1.000  H
  H26      1.0000 0.18583  0.72659  0.97849  Biso   1.000  H
  H27      1.0000 0.70044  0.27076  0.51855  Biso   1.000  H
  H28      1.0000 0.57128  0.27334  0.53527  Biso   1.000  H
  H29      1.0000 0.39904  0.25535  0.05953  Biso   1.000  H
  H30      1.0000 0.36365  0.19213  0.98943  Biso   1.000  H
  H31      1.0000 0.89467  0.72298  0.44222  Biso   1.000  H
  H32      1.0000 0.85165  0.79379  0.50948  Biso   1.000  H
  H33      1.0000 0.29867  0.06953  0.05541  Biso   1.000  H
  H34      1.0000 0.28632  0.05142  0.16010  Biso   1.000  H
  H35      1.0000 0.77163  0.40219  0.57259  Biso   1.000  H
  H36      1.0000 0.72729  0.41417  0.66991  Biso   1.000  H
  H37      1.0000 0.79018  0.92262  0.44005  Biso   1.000  H
  H38      1.0000 0.78431  0.93986  0.33528  Biso   1.000  H
  H39      1.0000 0.23809  0.59080  0.93627  Biso   1.000  H
  H40      1.0000 0.20506  0.57795  0.83913  Biso   1.000  H
  H41      1.0000 0.93697  0.79470  0.29654  Biso   1.000  H
  H42      1.0000 0.92005  0.90564  0.28995  Biso   1.000  H
  H43      1.0000 0.54141  0.31021  0.66738  Biso   1.000  H
  H44      1.0000 0.58337  0.40723  0.68459  Biso   1.000  H
  H45      1.0000 0.00219  0.68441  0.83529  Biso   1.000  H
  H46      1.0000 0.06157  0.58409  0.82509  Biso   1.000  H
  H47      1.0000 0.42176  0.10025  0.21299  Biso   1.000  H
  H48      1.0000 0.44008  0.20897  0.19426  Biso   1.000  H
  C1       1.0000 0.65795  0.30941  0.57054  Biso   1.000  C
  C2       1.0000 0.69900  0.36688  0.60325  Biso   1.000  C
  C3       1.0000 0.61510  0.33977  0.63212  Biso   1.000  C
  C4       1.0000 0.10913  0.68887  0.93224  Biso   1.000  C
  C5       1.0000 0.16262  0.62749  0.90379  Biso   1.000  C
  C6       1.0000 0.07713  0.65512  0.87280  Biso   1.000  C
  C7       1.0000 0.87037  0.79819  0.41957  Biso   1.000  C
  C8       1.0000 0.83585  0.87570  0.39572  Biso   1.000  C
  C9       1.0000 0.88834  0.83250  0.34656  Biso   1.000  C
  C10      1.0000 0.37665  0.18218  0.07958  Biso   1.000  C
  C11      1.0000 0.39158  0.14281  0.15134  Biso   1.000  C
  C12      1.0000 0.34179  0.10874  0.10092  Biso   1.000  C
  C13      1.0000 0.17214  0.81072  0.02531  Biso   1.000  C
  C14      1.0000 0.13484  0.77624  0.01747  Biso   1.000  C
  C15      1.0000 0.08858  0.78434  0.04751  Biso   1.000  C
  C16      1.0000 0.19558  0.99582  0.15246  Biso   1.000  C
  C17      1.0000 0.23999  0.00810  0.12123  Biso   1.000  C
  C18      1.0000 0.23618  0.97740  0.08755  Biso   1.000  C
  C19      1.0000 0.98724  0.84240  0.20627  Biso   1.000  C
  C20      1.0000 0.97252  0.87522  0.23784  Biso   1.000  C
  C21      1.0000 0.00515  0.91450  0.22317  Biso   1.000  C
  C22      1.0000 0.65166  0.19275  0.47550  Biso   1.000  C
  C23      1.0000 0.61120  0.23021  0.48481  Biso   1.000  C
  C24      1.0000 0.56959  0.23014  0.45200  Biso   1.000  C
  C25      1.0000 0.69531  0.01059  0.34101  Biso   1.000  C
  C26      1.0000 0.73633  0.99122  0.37324  Biso   1.000  C
  C27      1.0000 0.72954  0.02220  0.40725  Biso   1.000  C
  C28      1.0000 0.49069  0.19354  0.28433  Biso   1.000  C
  C29      1.0000 0.48004  0.16277  0.25211  Biso   1.000  C
  C30      1.0000 0.51316  0.11958  0.26662  Biso   1.000  C
  C31      1.0000 0.38041  0.31596  0.97104  Biso   1.000  C
  C32      1.0000 0.38186  0.26644  0.96613  Biso   1.000  C
  C33      1.0000 0.38983  0.26574  0.91876  Biso   1.000  C
  C34      1.0000 0.30601  0.51941  0.82944  Biso   1.000  C
  C35      1.0000 0.27721  0.53338  0.86870  Biso   1.000  C
  C36      1.0000 0.30211  0.50154  0.90490  Biso   1.000  C
  C37      1.0000 0.48681  0.34193  0.75325  Biso   1.000  C
  C38      1.0000 0.51261  0.37964  0.72582  Biso   1.000  C
  C39      1.0000 0.48706  0.42199  0.74132  Biso   1.000  C
  C40      1.0000 0.87756  0.66817  0.53282  Biso   1.000  C
  C41      1.0000 0.87279  0.71828  0.53567  Biso   1.000  C
  C42      1.0000 0.87553  0.72082  0.58281  Biso   1.000  C
  C43      1.0000 0.81830  0.47053  0.68020  Biso   1.000  C
  C44      1.0000 0.79511  0.45716  0.64093  Biso   1.000  C
  C45      1.0000 0.81849  0.48798  0.60471  Biso   1.000  C
  C46      1.0000 0.96195  0.64793  0.75184  Biso   1.000  C
  C47      1.0000 0.99092  0.61098  0.78148  Biso   1.000  C
  C48      1.0000 0.97419  0.56797  0.76793  Biso   1.000  C
  C49      1.0000 0.10007  0.72473  0.96395  Biso   1.000  C
  C50      1.0000 0.14261  0.74080  0.98578  Biso   1.000  C
  C51      1.0000 0.65919  0.27790  0.53485  Biso   1.000  C
  C52      1.0000 0.61187  0.26154  0.52004  Biso   1.000  C
  C53      1.0000 0.38408  0.22451  0.04594  Biso   1.000  C
  C54      1.0000 0.37573  0.22534  0.00072  Biso   1.000  C
  C55      1.0000 0.87745  0.75630  0.45460  Biso   1.000  C
  C56      1.0000 0.86628  0.75852  0.49960  Biso   1.000  C
  C57      1.0000 0.30600  0.07136  0.09126  Biso   1.000  C
  C58      1.0000 0.27905  0.04424  0.12546  Biso   1.000  C
  C59      1.0000 0.74462  0.39890  0.60326  Biso   1.000  C
  C60      1.0000 0.75391  0.42212  0.63936  Biso   1.000  C
  C61      1.0000 0.79960  0.91866  0.40436  Biso   1.000  C
  C62      1.0000 0.77507  0.94901  0.36968  Biso   1.000  C
  C63      1.0000 0.21359  0.59404  0.90537  Biso   1.000  C
  C64      1.0000 0.23020  0.56974  0.86986  Biso   1.000  C
  C65      1.0000 0.92077  0.83055  0.30374  Biso   1.000  C
  C66      1.0000 0.93550  0.87158  0.27787  Biso   1.000  C
  C67      1.0000 0.56813  0.34028  0.66550  Biso   1.000  C
  C68      1.0000 0.55674  0.37690  0.69097  Biso   1.000  C
  C69      1.0000 0.03356  0.65347  0.83941  Biso   1.000  C
  C70      1.0000 0.03076  0.61497  0.81645  Biso   1.000  C
  C71      1.0000 0.42056  0.13681  0.19466  Biso   1.000  C
  C72      1.0000 0.44535  0.17211  0.21197  Biso   1.000  C
  N1       1.0000 0.70228  0.33691  0.57067  Biso   1.000  N
  N2       1.0000 0.65680  0.36927  0.63497  Biso   1.000  N
  N3       1.0000 0.61323  0.30944  0.60032  Biso   1.000  N
  N4       1.0000 0.15769  0.65951  0.93444  Biso   1.000  N
  N5       1.0000 0.12378  0.62399  0.87226  Biso   1.000  N
  N6       1.0000 0.06723  0.68802  0.90244  Biso   1.000  N
  N7       1.0000 0.84311  0.83968  0.43083  Biso   1.000  N
  N8       1.0000 0.85857  0.87433  0.35327  Biso   1.000  N
  N9       1.0000 0.89261  0.79219  0.37765  Biso   1.000  N
  N10      1.0000 0.39691  0.18351  0.12152  Biso   1.000  N
  N11      1.0000 0.36255  0.10540  0.14345  Biso   1.000  N
  N12      1.0000 0.35078  0.14472  0.06689  Biso   1.000  N
  N13      1.0000 0.09773  0.82076  0.07134  Biso   1.000  N
  N14      1.0000 0.14943  0.83772  0.05703  Biso   1.000  N
  N15      1.0000 0.19283  0.94909  0.09809  Biso   1.000  N
  N16      1.0000 0.16707  0.96114  0.13815  Biso   1.000  N
  N17      1.0000 0.03743  0.90549  0.18631  Biso   1.000  N
  N18      1.0000 0.02575  0.86086  0.17542  Biso   1.000  N
  N19      1.0000 0.58457  0.19577  0.42483  Biso   1.000  N
  N20      1.0000 0.63531  0.17197  0.43995  Biso   1.000  N
  N21      1.0000 0.68770  0.05722  0.39597  Biso   1.000  N
  N22      1.0000 0.66590  0.04953  0.35505  Biso   1.000  N
  N23      1.0000 0.54124  0.12430  0.30441  Biso   1.000  N
  N24      1.0000 0.52677  0.17011  0.31588  Biso   1.000  N
  N25      1.0000 0.39335  0.31115  0.89723  Biso   1.000  N
  N26      1.0000 0.38701  0.34251  0.92988  Biso   1.000  N
  N27      1.0000 0.34245  0.47097  0.88840  Biso   1.000  N
  N28      1.0000 0.34531  0.48254  0.84139  Biso   1.000  N
  N29      1.0000 0.44862  0.41040  0.77490  Biso   1.000  N
  N30      1.0000 0.44891  0.36048  0.78272  Biso   1.000  N
  N31      1.0000 0.88188  0.67586  0.60613  Biso   1.000  N
  N32      1.0000 0.88280  0.64305  0.57491  Biso   1.000  N
  N33      1.0000 0.85277  0.51740  0.62118  Biso   1.000  N
  N34      1.0000 0.85314  0.50612  0.66824  Biso   1.000  N
  N35      1.0000 0.93764  0.57853  0.73337  Biso   1.000  N
  N36      1.0000 0.93051  0.62837  0.72298  Biso   1.000  N
