data_image0
_cell_length_a       18.7695
_cell_length_b       18.7695
_cell_length_c       18.7695
_cell_angle_alpha    60.0009
_cell_angle_beta     60.0003
_cell_angle_gamma    60.0003

_symmetry_space_group_name_H-M    "P 1"
_symmetry_int_tables_number       1

loop_
  _symmetry_equiv_pos_as_xyz
  'x, y, z'

loop_
  _atom_site_label
  _atom_site_occupancy
  _atom_site_fract_x
  _atom_site_fract_y
  _atom_site_fract_z
  _atom_site_thermal_displace_type
  _atom_site_B_iso_or_equiv
  _atom_site_type_symbol
  C1       1.0000 0.43015  0.97643  0.16320  Biso   1.000  C
  C2       1.0000 0.43015  0.16320  0.97643  Biso   1.000  C
  C3       1.0000 0.16316  0.43014  0.43014  Biso   1.000  C
  C4       1.0000 0.97640  0.43019  0.43019  Biso   1.000  C
  C5       1.0000 0.97643  0.16322  0.43016  Biso   1.000  C
  C6       1.0000 0.16321  0.97643  0.43014  Biso   1.000  C
  C7       1.0000 0.43010  0.43014  0.16319  Biso   1.000  C
  C8       1.0000 0.43018  0.43017  0.97640  Biso   1.000  C
  C9       1.0000 0.16321  0.43014  0.97643  Biso   1.000  C
  C10      1.0000 0.97643  0.43016  0.16322  Biso   1.000  C
  C11      1.0000 0.43010  0.16319  0.43014  Biso   1.000  C
  C12      1.0000 0.43018  0.97640  0.43017  Biso   1.000  C
  C13      1.0000 0.56985  0.02357  0.83680  Biso   1.000  C
  C14      1.0000 0.56985  0.83680  0.02357  Biso   1.000  C
  C15      1.0000 0.02360  0.56981  0.56981  Biso   1.000  C
  C16      1.0000 0.83684  0.56986  0.56986  Biso   1.000  C
  C17      1.0000 0.56989  0.83681  0.56986  Biso   1.000  C
  C18      1.0000 0.56982  0.02360  0.56983  Biso   1.000  C
  C19      1.0000 0.02357  0.56984  0.83678  Biso   1.000  C
  C20      1.0000 0.83679  0.56986  0.02357  Biso   1.000  C
  C21      1.0000 0.56982  0.56983  0.02360  Biso   1.000  C
  C22      1.0000 0.56989  0.56986  0.83681  Biso   1.000  C
  C23      1.0000 0.02357  0.83678  0.56984  Biso   1.000  C
  C24      1.0000 0.83679  0.02357  0.56986  Biso   1.000  C
  C25      1.0000 0.38594  0.97135  0.25670  Biso   1.000  C
  C26      1.0000 0.38594  0.25670  0.97135  Biso   1.000  C
  C27      1.0000 0.25663  0.38589  0.38589  Biso   1.000  C
  C28      1.0000 0.97132  0.38597  0.38597  Biso   1.000  C
  C29      1.0000 0.97135  0.25672  0.38595  Biso   1.000  C
  C30      1.0000 0.25671  0.97135  0.38593  Biso   1.000  C
  C31      1.0000 0.38585  0.38589  0.25666  Biso   1.000  C
  C32      1.0000 0.38596  0.38595  0.97132  Biso   1.000  C
  C33      1.0000 0.25671  0.38593  0.97135  Biso   1.000  C
  C34      1.0000 0.97135  0.38595  0.25672  Biso   1.000  C
  C35      1.0000 0.38585  0.25666  0.38589  Biso   1.000  C
  C36      1.0000 0.38596  0.97132  0.38595  Biso   1.000  C
  C37      1.0000 0.61406  0.02865  0.74330  Biso   1.000  C
  C38      1.0000 0.61406  0.74330  0.02865  Biso   1.000  C
  C39      1.0000 0.02868  0.61403  0.61403  Biso   1.000  C
  C40      1.0000 0.74337  0.61411  0.61411  Biso   1.000  C
  C41      1.0000 0.61415  0.74334  0.61411  Biso   1.000  C
  C42      1.0000 0.61404  0.02868  0.61405  Biso   1.000  C
  C43      1.0000 0.02865  0.61405  0.74328  Biso   1.000  C
  C44      1.0000 0.74329  0.61407  0.02865  Biso   1.000  C
  C45      1.0000 0.61404  0.61405  0.02868  Biso   1.000  C
  C46      1.0000 0.61415  0.61411  0.74334  Biso   1.000  C
  C47      1.0000 0.02865  0.74328  0.61405  Biso   1.000  C
  C48      1.0000 0.74329  0.02865  0.61407  Biso   1.000  C
  C49      1.0000 0.29979  0.97131  0.29978  Biso   1.000  C
  C50      1.0000 0.42908  0.29980  0.97125  Biso   1.000  C
  C51      1.0000 0.29971  0.42901  0.29975  Biso   1.000  C
  C52      1.0000 0.97126  0.29982  0.42908  Biso   1.000  C
  C53      1.0000 0.97131  0.29980  0.29980  Biso   1.000  C
  C54      1.0000 0.29982  0.97125  0.42906  Biso   1.000  C
  C55      1.0000 0.42897  0.29975  0.29975  Biso   1.000  C
  C56      1.0000 0.29982  0.42906  0.97125  Biso   1.000  C
  C57      1.0000 0.29979  0.29978  0.97131  Biso   1.000  C
  C58      1.0000 0.97126  0.42908  0.29982  Biso   1.000  C
  C59      1.0000 0.29971  0.29975  0.42901  Biso   1.000  C
  C60      1.0000 0.42908  0.97125  0.29980  Biso   1.000  C
  C61      1.0000 0.57092  0.02875  0.70020  Biso   1.000  C
  C62      1.0000 0.70021  0.70022  0.02869  Biso   1.000  C
  C63      1.0000 0.02874  0.57092  0.70018  Biso   1.000  C
  C64      1.0000 0.70029  0.70025  0.57099  Biso   1.000  C
  C65      1.0000 0.57103  0.70025  0.70025  Biso   1.000  C
  C66      1.0000 0.70018  0.02875  0.57094  Biso   1.000  C
  C67      1.0000 0.02869  0.70020  0.70020  Biso   1.000  C
  C68      1.0000 0.70018  0.57094  0.02875  Biso   1.000  C
  C69      1.0000 0.57092  0.70020  0.02875  Biso   1.000  C
  C70      1.0000 0.70029  0.57099  0.70025  Biso   1.000  C
  C71      1.0000 0.02874  0.70018  0.57092  Biso   1.000  C
  C72      1.0000 0.70021  0.02869  0.70022  Biso   1.000  C
  Cu1      1.0000 0.43477  0.00002  0.00002  Biso   1.000  Cu
  Cu2      1.0000 0.56523  0.99998  0.99998  Biso   1.000  Cu
  Cu3      1.0000 1.00000  0.56521  0.43479  Biso   1.000  Cu
  Cu4      1.0000 0.00000  0.43479  0.56521  Biso   1.000  Cu
  Cu5      1.0000 0.00001  0.00003  0.43477  Biso   1.000  Cu
  Cu6      1.0000 0.99999  0.99997  0.56523  Biso   1.000  Cu
  Cu7      1.0000 0.56520  0.43480  0.00001  Biso   1.000  Cu
  Cu8      1.0000 0.43480  0.56520  0.99999  Biso   1.000  Cu
  Cu9      1.0000 0.00001  0.43477  0.00003  Biso   1.000  Cu
  Cu10     1.0000 0.99999  0.56523  0.99997  Biso   1.000  Cu
  Cu11     1.0000 0.43480  0.99999  0.56520  Biso   1.000  Cu
  Cu12     1.0000 0.56520  0.00001  0.43480  Biso   1.000  Cu
  H1       1.0000 0.26591  0.97271  0.26589  Biso   1.000  H
  H2       1.0000 0.49547  0.26591  0.97260  Biso   1.000  H
  H3       1.0000 0.26584  0.49540  0.26589  Biso   1.000  H
  H4       1.0000 0.97261  0.26594  0.49547  Biso   1.000  H
  H5       1.0000 0.97271  0.26592  0.26592  Biso   1.000  H
  H6       1.0000 0.26592  0.97260  0.49545  Biso   1.000  H
  H7       1.0000 0.49536  0.26589  0.26589  Biso   1.000  H
  H8       1.0000 0.26592  0.49545  0.97260  Biso   1.000  H
  H9       1.0000 0.26591  0.26589  0.97271  Biso   1.000  H
  H10      1.0000 0.97261  0.49547  0.26594  Biso   1.000  H
  H11      1.0000 0.26584  0.26589  0.49540  Biso   1.000  H
  H12      1.0000 0.49547  0.97260  0.26591  Biso   1.000  H
  H13      1.0000 0.50453  0.02740  0.73409  Biso   1.000  H
  H14      1.0000 0.73409  0.73411  0.02729  Biso   1.000  H
  H15      1.0000 0.02739  0.50453  0.73406  Biso   1.000  H
  H16      1.0000 0.73416  0.73411  0.50460  Biso   1.000  H
  H17      1.0000 0.50464  0.73411  0.73411  Biso   1.000  H
  H18      1.0000 0.73408  0.02740  0.50455  Biso   1.000  H
  H19      1.0000 0.02729  0.73408  0.73408  Biso   1.000  H
  H20      1.0000 0.73408  0.50455  0.02740  Biso   1.000  H
  H21      1.0000 0.50453  0.73409  0.02740  Biso   1.000  H
  H22      1.0000 0.73416  0.50460  0.73411  Biso   1.000  H
  H23      1.0000 0.02739  0.73406  0.50453  Biso   1.000  H
  H24      1.0000 0.73409  0.02729  0.73411  Biso   1.000  H
  O1       1.0000 0.38613  0.97933  0.12666  Biso   1.000  O
  O2       1.0000 0.50783  0.12664  0.97925  Biso   1.000  O
  O3       1.0000 0.12663  0.50782  0.38618  Biso   1.000  O
  O4       1.0000 0.97927  0.38621  0.50785  Biso   1.000  O
  O5       1.0000 0.97932  0.12668  0.38614  Biso   1.000  O
  O6       1.0000 0.12665  0.97923  0.50782  Biso   1.000  O
  O7       1.0000 0.50780  0.38619  0.12666  Biso   1.000  O
  O8       1.0000 0.38622  0.50784  0.97926  Biso   1.000  O
  O9       1.0000 0.12666  0.38612  0.97935  Biso   1.000  O
  O10      1.0000 0.97926  0.50783  0.12664  Biso   1.000  O
  O11      1.0000 0.38615  0.12664  0.50782  Biso   1.000  O
  O12      1.0000 0.50784  0.97929  0.38620  Biso   1.000  O
  O13      1.0000 0.49217  0.02075  0.87336  Biso   1.000  O
  O14      1.0000 0.61387  0.87334  0.02067  Biso   1.000  O
  O15      1.0000 0.02073  0.49215  0.61379  Biso   1.000  O
  O16      1.0000 0.87337  0.61382  0.49218  Biso   1.000  O
  O17      1.0000 0.49221  0.87334  0.61381  Biso   1.000  O
  O18      1.0000 0.61379  0.02074  0.49216  Biso   1.000  O
  O19      1.0000 0.02068  0.61386  0.87332  Biso   1.000  O
  O20      1.0000 0.87335  0.49218  0.02076  Biso   1.000  O
  O21      1.0000 0.49216  0.61380  0.02071  Biso   1.000  O
  O22      1.0000 0.61385  0.49218  0.87336  Biso   1.000  O
  O23      1.0000 0.02074  0.87336  0.49217  Biso   1.000  O
  O24      1.0000 0.87334  0.02065  0.61388  Biso   1.000  O
  O25      1.0000 0.61387  0.02066  0.87334  Biso   1.000  O
  O26      1.0000 0.49217  0.87336  0.02075  Biso   1.000  O
  O27      1.0000 0.87337  0.49218  0.61382  Biso   1.000  O
  O28      1.0000 0.02073  0.61379  0.49215  Biso   1.000  O
  O29      1.0000 0.02068  0.87332  0.61386  Biso   1.000  O
  O30      1.0000 0.87335  0.02077  0.49218  Biso   1.000  O
  O31      1.0000 0.49221  0.61381  0.87334  Biso   1.000  O
  O32      1.0000 0.61379  0.49216  0.02074  Biso   1.000  O
  O33      1.0000 0.87334  0.61388  0.02065  Biso   1.000  O
  O34      1.0000 0.02074  0.49217  0.87336  Biso   1.000  O
  O35      1.0000 0.61385  0.87336  0.49218  Biso   1.000  O
  O36      1.0000 0.49216  0.02071  0.61380  Biso   1.000  O
  O37      1.0000 0.50783  0.97925  0.12664  Biso   1.000  O
  O38      1.0000 0.38613  0.12666  0.97933  Biso   1.000  O
  O39      1.0000 0.97927  0.50785  0.38621  Biso   1.000  O
  O40      1.0000 0.12663  0.38618  0.50782  Biso   1.000  O
  O41      1.0000 0.50780  0.12666  0.38619  Biso   1.000  O
  O42      1.0000 0.38622  0.97926  0.50784  Biso   1.000  O
  O43      1.0000 0.97932  0.38614  0.12668  Biso   1.000  O
  O44      1.0000 0.12665  0.50782  0.97924  Biso   1.000  O
  O45      1.0000 0.50784  0.38620  0.97929  Biso   1.000  O
  O46      1.0000 0.38615  0.50782  0.12664  Biso   1.000  O
  O47      1.0000 0.97926  0.12664  0.50783  Biso   1.000  O
  O48      1.0000 0.12666  0.97935  0.38612  Biso   1.000  O
