data_image0
_cell_length_a       6.8383
_cell_length_b       9.11911
_cell_length_c       10.5088
_cell_angle_alpha    89.6987
_cell_angle_beta     109.598
_cell_angle_gamma    118.708

_symmetry_space_group_name_H-M    "P 1"
_symmetry_int_tables_number       1

loop_
  _symmetry_equiv_pos_as_xyz
  'x, y, z'

loop_
  _atom_site_label
  _atom_site_occupancy
  _atom_site_fract_x
  _atom_site_fract_y
  _atom_site_fract_z
  _atom_site_thermal_displace_type
  _atom_site_B_iso_or_equiv
  _atom_site_type_symbol
  Li1      1.0000 0.80646  0.00779  0.00916  Biso   1.000  Li
  Li2      1.0000 0.19354  0.99223  0.99086  Biso   1.000  Li
  Li3      1.0000 0.66609  0.38443  0.16766  Biso   1.000  Li
  Li4      1.0000 0.33390  0.61560  0.83236  Biso   1.000  Li
  Li5      1.0000 0.45323  0.56815  0.35401  Biso   1.000  Li
  Li6      1.0000 0.54676  0.43188  0.64601  Biso   1.000  Li
  H1       1.0000 0.62281  0.71784  0.06621  Biso   1.000  H
  H2       1.0000 0.37719  0.28218  0.93380  Biso   1.000  H
  H3       1.0000 0.42956  0.77859  0.04819  Biso   1.000  H
  H4       1.0000 0.57043  0.22143  0.95182  Biso   1.000  H
  H5       1.0000 0.28184  0.26821  0.18483  Biso   1.000  H
  H6       1.0000 0.71816  0.73181  0.81518  Biso   1.000  H
  H7       1.0000 0.31247  0.42202  0.11210  Biso   1.000  H
  H8       1.0000 0.68753  0.57801  0.88791  Biso   1.000  H
  H9       1.0000 0.71159  0.42220  0.43661  Biso   1.000  H
  H10      1.0000 0.28841  0.57782  0.56340  Biso   1.000  H
  H11      1.0000 0.88799  0.57941  0.55421  Biso   1.000  H
  H12      1.0000 0.11200  0.42061  0.44580  Biso   1.000  H
  H13      1.0000 0.66514  0.89821  0.29222  Biso   1.000  H
  H14      1.0000 0.33485  0.10181  0.70780  Biso   1.000  H
  H15      1.0000 0.76539  0.76262  0.61804  Biso   1.000  H
  H16      1.0000 0.23460  0.23741  0.38198  Biso   1.000  H
  H17      1.0000 0.84346  0.32590  0.58265  Biso   1.000  H
  H18      1.0000 0.15653  0.67413  0.41737  Biso   1.000  H
  C1       1.0000 0.85284  0.15118  0.71558  Biso   1.000  C
  C2       1.0000 0.14715  0.84885  0.28443  Biso   1.000  C
  C3       1.0000 0.83668  0.99021  0.73141  Biso   1.000  C
  C4       1.0000 0.16330  0.00981  0.26860  Biso   1.000  C
  C5       1.0000 0.77650  0.88486  0.61039  Biso   1.000  C
  C6       1.0000 0.22349  0.11517  0.38962  Biso   1.000  C
  C7       1.0000 0.73794  0.93402  0.48301  Biso   1.000  C
  C8       1.0000 0.26204  0.06600  0.51701  Biso   1.000  C
  C9       1.0000 0.76577  0.09710  0.47029  Biso   1.000  C
  C10      1.0000 0.23422  0.90292  0.52972  Biso   1.000  C
  C11      1.0000 0.82327  0.20124  0.58877  Biso   1.000  C
  C12      1.0000 0.17672  0.79878  0.41125  Biso   1.000  C
  C13      1.0000 0.73988  0.15496  0.33774  Biso   1.000  C
  C14      1.0000 0.26012  0.84507  0.66228  Biso   1.000  C
  S1       1.0000 0.93347  0.30473  0.85257  Biso   1.000  S
  S2       1.0000 0.06652  0.69529  0.14745  Biso   1.000  S
  O1       1.0000 0.20591  0.39972  0.91728  Biso   1.000  O
  O2       1.0000 0.79409  0.60030  0.08273  Biso   1.000  O
  O3       1.0000 0.54662  0.77837  0.01246  Biso   1.000  O
  O4       1.0000 0.45338  0.22166  0.98756  Biso   1.000  O
  O5       1.0000 0.85010  0.42165  0.79493  Biso   1.000  O
  O6       1.0000 0.14989  0.57837  0.20508  Biso   1.000  O
  O7       1.0000 0.39271  0.39680  0.19907  Biso   1.000  O
  O8       1.0000 0.60729  0.60322  0.80094  Biso   1.000  O
  O9       1.0000 0.82789  0.21826  0.95320  Biso   1.000  O
  O10      1.0000 0.17210  0.78177  0.04682  Biso   1.000  O
  O11      1.0000 0.87270  0.93945  0.85113  Biso   1.000  O
  O12      1.0000 0.12730  0.06058  0.14889  Biso   1.000  O
  O13      1.0000 0.71332  0.50570  0.49839  Biso   1.000  O
  O14      1.0000 0.28668  0.49433  0.50162  Biso   1.000  O
  O15      1.0000 0.67541  0.82588  0.36936  Biso   1.000  O
  O16      1.0000 0.32458  0.17414  0.63065  Biso   1.000  O
  O17      1.0000 0.67949  0.05196  0.23155  Biso   1.000  O
  O18      1.0000 0.32049  0.94806  0.76847  Biso   1.000  O
  O19      1.0000 0.78563  0.31056  0.33477  Biso   1.000  O
  O20      1.0000 0.21437  0.68947  0.66524  Biso   1.000  O
