data_image0
_cell_length_a       6.92257
_cell_length_b       15.2548
_cell_length_c       15.2266
_cell_angle_alpha    117.737
_cell_angle_beta     98.7475
_cell_angle_gamma    98.689

_symmetry_space_group_name_H-M    "P 1"
_symmetry_int_tables_number       1

loop_
  _symmetry_equiv_pos_as_xyz
  'x, y, z'

loop_
  _atom_site_label
  _atom_site_occupancy
  _atom_site_fract_x
  _atom_site_fract_y
  _atom_site_fract_z
  _atom_site_thermal_displace_type
  _atom_site_B_iso_or_equiv
  _atom_site_type_symbol
  Zn1      1.0000 0.10960  0.32669  0.59076  Biso   1.000  Zn
  Zn2      1.0000 0.51826  0.40815  0.73552  Biso   1.000  Zn
  Zn3      1.0000 0.78339  0.26400  0.67271  Biso   1.000  Zn
  Zn4      1.0000 0.89039  0.67332  0.40924  Biso   1.000  Zn
  Zn5      1.0000 0.48172  0.59185  0.26448  Biso   1.000  Zn
  Zn6      1.0000 0.21659  0.73600  0.32729  Biso   1.000  Zn
  H1       1.0000 0.65635  0.02418  0.46820  Biso   1.000  H
  H2       1.0000 0.18795  0.53131  0.55586  Biso   1.000  H
  H3       1.0000 0.63216  0.44435  0.97576  Biso   1.000  H
  H4       1.0000 0.34364  0.97582  0.53179  Biso   1.000  H
  H5       1.0000 0.81203  0.46870  0.44414  Biso   1.000  H
  H6       1.0000 0.36780  0.55565  0.02424  Biso   1.000  H
  C1       1.0000 0.35464  0.17113  0.60814  Biso   1.000  C
  C2       1.0000 0.16850  0.08555  0.55242  Biso   1.000  C
  C3       1.0000 0.97109  0.10080  0.53484  Biso   1.000  C
  C4       1.0000 0.80783  0.01401  0.48240  Biso   1.000  C
  C5       1.0000 0.74629  0.39138  0.56256  Biso   1.000  C
  C6       1.0000 0.61593  0.44730  0.53290  Biso   1.000  C
  C7       1.0000 0.43597  0.46463  0.56565  Biso   1.000  C
  C8       1.0000 0.32532  0.51734  0.53153  Biso   1.000  C
  C9       1.0000 0.18332  0.43669  0.82861  Biso   1.000  C
  C10      1.0000 0.08276  0.46668  0.91429  Biso   1.000  C
  C11      1.0000 0.87007  0.43398  0.89897  Biso   1.000  C
  C12      1.0000 0.79381  0.46857  0.98594  Biso   1.000  C
  C13      1.0000 0.64534  0.82887  0.39186  Biso   1.000  C
  C14      1.0000 0.83149  0.91445  0.44757  Biso   1.000  C
  C15      1.0000 0.02890  0.89920  0.46516  Biso   1.000  C
  C16      1.0000 0.19215  0.98599  0.51759  Biso   1.000  C
  C17      1.0000 0.25370  0.60863  0.43744  Biso   1.000  C
  C18      1.0000 0.38406  0.55271  0.46710  Biso   1.000  C
  C19      1.0000 0.56401  0.53537  0.43434  Biso   1.000  C
  C20      1.0000 0.67467  0.48267  0.46847  Biso   1.000  C
  C21      1.0000 0.81666  0.56330  0.17139  Biso   1.000  C
  C22      1.0000 0.91720  0.53333  0.08571  Biso   1.000  C
  C23      1.0000 0.12990  0.56602  0.10103  Biso   1.000  C
  C24      1.0000 0.20615  0.53143  0.01406  Biso   1.000  C
  O1       1.0000 0.33377  0.26286  0.64278  Biso   1.000  O
  O2       1.0000 0.52654  0.15145  0.61949  Biso   1.000  O
  O3       1.0000 0.93065  0.19397  0.56523  Biso   1.000  O
  O4       1.0000 0.69108  0.35651  0.61964  Biso   1.000  O
  O5       1.0000 0.90671  0.38012  0.53136  Biso   1.000  O
  O6       1.0000 0.36490  0.43378  0.62819  Biso   1.000  O
  O7       1.0000 0.07092  0.37942  0.73661  Biso   1.000  O
  O8       1.0000 0.37488  0.46787  0.84844  Biso   1.000  O
  O9       1.0000 0.73631  0.37112  0.80562  Biso   1.000  O
  O10      1.0000 0.66622  0.73714  0.35721  Biso   1.000  O
  O11      1.0000 0.47345  0.84855  0.38050  Biso   1.000  O
  O12      1.0000 0.06934  0.80604  0.43476  Biso   1.000  O
  O13      1.0000 0.30891  0.64350  0.38037  Biso   1.000  O
  O14      1.0000 0.09328  0.61989  0.46864  Biso   1.000  O
  O15      1.0000 0.63509  0.56622  0.37181  Biso   1.000  O
  O16      1.0000 0.92906  0.62059  0.26339  Biso   1.000  O
  O17      1.0000 0.62510  0.53214  0.15156  Biso   1.000  O
  O18      1.0000 0.26366  0.62889  0.19438  Biso   1.000  O
