data_image0
_cell_length_a       33.1565
_cell_length_b       32.8891
_cell_length_c       33.6035
_cell_angle_alpha    89.6074
_cell_angle_beta     93.0716
_cell_angle_gamma    89.9231

_symmetry_space_group_name_H-M    "P 1"
_symmetry_int_tables_number       1

loop_
  _symmetry_equiv_pos_as_xyz
  'x, y, z'

loop_
  _atom_site_label
  _atom_site_occupancy
  _atom_site_fract_x
  _atom_site_fract_y
  _atom_site_fract_z
  _atom_site_thermal_displace_type
  _atom_site_B_iso_or_equiv
  _atom_site_type_symbol
  Cu1      1.0000 0.87521  0.91327  0.83125  Biso   1.000  Cu
  Cu2      1.0000 0.83759  0.87627  0.90812  Biso   1.000  Cu
  Cu3      1.0000 0.91005  0.82996  0.86827  Biso   1.000  Cu
  Cu4      1.0000 0.13348  0.59174  0.33841  Biso   1.000  Cu
  Cu5      1.0000 0.17205  0.62650  0.42005  Biso   1.000  Cu
  Cu6      1.0000 0.09025  0.66483  0.37998  Biso   1.000  Cu
  Cu7      1.0000 0.35760  0.10422  0.67174  Biso   1.000  Cu
  Cu8      1.0000 0.32691  0.12695  0.58340  Biso   1.000  Cu
  Cu9      1.0000 0.41521  0.15077  0.61295  Biso   1.000  Cu
  Cu10     1.0000 0.62381  0.41441  0.16488  Biso   1.000  Cu
  Cu11     1.0000 0.66127  0.37366  0.08887  Biso   1.000  Cu
  Cu12     1.0000 0.58635  0.33195  0.12864  Biso   1.000  Cu
  H1       1.0000 0.81483  0.98822  0.81306  Biso   1.000  H
  H2       1.0000 0.77321  0.94561  0.92590  Biso   1.000  H
  H3       1.0000 0.97690  0.80965  0.80578  Biso   1.000  H
  H4       1.0000 0.93875  0.92952  0.76516  Biso   1.000  H
  H5       1.0000 0.82005  0.81386  0.97812  Biso   1.000  H
  H6       1.0000 0.92667  0.75877  0.93257  Biso   1.000  H
  H7       1.0000 0.20011  0.52621  0.31840  Biso   1.000  H
  H8       1.0000 0.24460  0.56247  0.43628  Biso   1.000  H
  H9       1.0000 0.01814  0.68327  0.31452  Biso   1.000  H
  H10      1.0000 0.06834  0.57342  0.26696  Biso   1.000  H
  H11      1.0000 0.18747  0.68810  0.49242  Biso   1.000  H
  H12      1.0000 0.07012  0.72948  0.44605  Biso   1.000  H
  H13      1.0000 0.29067  0.03901  0.69414  Biso   1.000  H
  H14      1.0000 0.25879  0.05945  0.56899  Biso   1.000  H
  H15      1.0000 0.49769  0.14805  0.66673  Biso   1.000  H
  H16      1.0000 0.41285  0.10912  0.75271  Biso   1.000  H
  H17      1.0000 0.31184  0.19246  0.51262  Biso   1.000  H
  H18      1.0000 0.43896  0.21132  0.54285  Biso   1.000  H
  H19      1.0000 0.68772  0.48612  0.18139  Biso   1.000  H
  H20      1.0000 0.72865  0.43924  0.07048  Biso   1.000  H
  H21      1.0000 0.51947  0.31400  0.19141  Biso   1.000  H
  H22      1.0000 0.56147  0.43195  0.23191  Biso   1.000  H
  H23      1.0000 0.67763  0.30893  0.02134  Biso   1.000  H
  H24      1.0000 0.56826  0.25949  0.06705  Biso   1.000  H
  H25      1.0000 0.70787  0.08001  0.93271  Biso   1.000  H
  H26      1.0000 0.68044  0.06202  0.80792  Biso   1.000  H
  H27      1.0000 0.73437  0.00923  0.80661  Biso   1.000  H
  H28      1.0000 0.76117  0.02647  0.93210  Biso   1.000  H
  H29      1.0000 0.31252  0.42529  0.43465  Biso   1.000  H
  H30      1.0000 0.33320  0.45671  0.31336  Biso   1.000  H
  H31      1.0000 0.28102  0.51132  0.31492  Biso   1.000  H
  H32      1.0000 0.26130  0.48067  0.43707  Biso   1.000  H
  H33      1.0000 0.19659  0.92372  0.57345  Biso   1.000  H
  H34      1.0000 0.16492  0.95597  0.69122  Biso   1.000  H
  H35      1.0000 0.21404  0.01331  0.69155  Biso   1.000  H
  H36      1.0000 0.24531  0.98132  0.57304  Biso   1.000  H
  H37      1.0000 0.79592  0.57539  0.06276  Biso   1.000  H
  H38      1.0000 0.82439  0.55349  0.18707  Biso   1.000  H
  H39      1.0000 0.77016  0.50102  0.18803  Biso   1.000  H
  H40      1.0000 0.74262  0.52191  0.06294  Biso   1.000  H
  H41      1.0000 0.07111  0.93341  0.70337  Biso   1.000  H
  H42      1.0000 0.04764  0.80788  0.67752  Biso   1.000  H
  H43      1.0000 0.99468  0.80660  0.72750  Biso   1.000  H
  H44      1.0000 0.01765  0.93284  0.75280  Biso   1.000  H
  H45      1.0000 0.45313  0.31005  0.32134  Biso   1.000  H
  H46      1.0000 0.43088  0.43674  0.29834  Biso   1.000  H
  H47      1.0000 0.48258  0.43676  0.24712  Biso   1.000  H
  H48      1.0000 0.50426  0.30938  0.26959  Biso   1.000  H
  H49      1.0000 0.95044  0.68983  0.17495  Biso   1.000  H
  H50      1.0000 0.92731  0.56431  0.20050  Biso   1.000  H
  H51      1.0000 0.98267  0.56457  0.25386  Biso   1.000  H
  H52      1.0000 0.00448  0.69102  0.22959  Biso   1.000  H
  H53      1.0000 0.52042  0.15459  0.85227  Biso   1.000  H
  H54      1.0000 0.60109  0.10230  0.77111  Biso   1.000  H
  H55      1.0000 0.54627  0.10308  0.71737  Biso   1.000  H
  H56      1.0000 0.46485  0.15415  0.79927  Biso   1.000  H
  H57      1.0000 0.93743  0.69652  0.07095  Biso   1.000  H
  H58      1.0000 0.81030  0.67805  0.04789  Biso   1.000  H
  H59      1.0000 0.80966  0.73044  0.99377  Biso   1.000  H
  H60      1.0000 0.93756  0.74754  0.01564  Biso   1.000  H
  H61      1.0000 0.32025  0.32625  0.44458  Biso   1.000  H
  H62      1.0000 0.43855  0.28776  0.41509  Biso   1.000  H
  H63      1.0000 0.43682  0.23210  0.46571  Biso   1.000  H
  H64      1.0000 0.31774  0.27030  0.49474  Biso   1.000  H
  H65      1.0000 0.55875  0.19147  0.93218  Biso   1.000  H
  H66      1.0000 0.68674  0.17685  0.95272  Biso   1.000  H
  H67      1.0000 0.68679  0.22883  0.00640  Biso   1.000  H
  H68      1.0000 0.55812  0.24239  0.98678  Biso   1.000  H
  H69      1.0000 0.18720  0.82340  0.56221  Biso   1.000  H
  H70      1.0000 0.06342  0.79385  0.57968  Biso   1.000  H
  H71      1.0000 0.06498  0.74149  0.52638  Biso   1.000  H
  H72      1.0000 0.18966  0.77005  0.50998  Biso   1.000  H
  C1       1.0000 0.35567  0.40410  0.37247  Biso   1.000  C
  C2       1.0000 0.38086  0.34404  0.39740  Biso   1.000  C
  C3       1.0000 0.40850  0.37363  0.34371  Biso   1.000  C
  C4       1.0000 0.65743  0.10392  0.87188  Biso   1.000  C
  C5       1.0000 0.59686  0.12817  0.84670  Biso   1.000  C
  C6       1.0000 0.62370  0.15184  0.90588  Biso   1.000  C
  C7       1.0000 0.84557  0.59874  0.12447  Biso   1.000  C
  C8       1.0000 0.87401  0.65364  0.09526  Biso   1.000  C
  C9       1.0000 0.90315  0.62662  0.15245  Biso   1.000  C
  C10      1.0000 0.14858  0.90241  0.63218  Biso   1.000  C
  C11      1.0000 0.09410  0.87159  0.65788  Biso   1.000  C
  C12      1.0000 0.12369  0.84379  0.60476  Biso   1.000  C
  C13      1.0000 0.80909  0.97221  0.84045  Biso   1.000  C
  C14      1.0000 0.78145  0.98120  0.86940  Biso   1.000  C
  C15      1.0000 0.78846  0.95089  0.89863  Biso   1.000  C
  C16      1.0000 0.96227  0.83877  0.80029  Biso   1.000  C
  C17      1.0000 0.97112  0.86946  0.77285  Biso   1.000  C
  C18      1.0000 0.94336  0.90048  0.78013  Biso   1.000  C
  C19      1.0000 0.84581  0.80514  0.96159  Biso   1.000  C
  C20      1.0000 0.87342  0.77321  0.96892  Biso   1.000  C
  C21      1.0000 0.90088  0.77749  0.93880  Biso   1.000  C
  C22      1.0000 0.20611  0.54039  0.34711  Biso   1.000  C
  C23      1.0000 0.23608  0.53122  0.37694  Biso   1.000  C
  C24      1.0000 0.22834  0.55831  0.40778  Biso   1.000  C
  C25      1.0000 0.03587  0.65674  0.30781  Biso   1.000  C
  C26      1.0000 0.02955  0.62822  0.27723  Biso   1.000  C
  C27      1.0000 0.06103  0.60003  0.28400  Biso   1.000  C
  C28      1.0000 0.15914  0.69366  0.47568  Biso   1.000  C
  C29      1.0000 0.12839  0.72162  0.48291  Biso   1.000  C
  C30      1.0000 0.09871  0.71420  0.45247  Biso   1.000  C
  C31      1.0000 0.28725  0.04967  0.66357  Biso   1.000  C
  C32      1.0000 0.26203  0.03506  0.63193  Biso   1.000  C
  C33      1.0000 0.27160  0.05951  0.59933  Biso   1.000  C
  C34      1.0000 0.47185  0.13803  0.68256  Biso   1.000  C
  C35      1.0000 0.46917  0.12862  0.72316  Biso   1.000  C
  C36      1.0000 0.42824  0.11906  0.72674  Biso   1.000  C
  C37      1.0000 0.34258  0.19231  0.52525  Biso   1.000  C
  C38      1.0000 0.37601  0.21521  0.51428  Biso   1.000  C
  C39      1.0000 0.40783  0.20131  0.54015  Biso   1.000  C
  C40      1.0000 0.69296  0.46927  0.15456  Biso   1.000  C
  C41      1.0000 0.72140  0.47624  0.12579  Biso   1.000  C
  C42      1.0000 0.71331  0.44584  0.09736  Biso   1.000  C
  C43      1.0000 0.53490  0.34262  0.19669  Biso   1.000  C
  C44      1.0000 0.52744  0.37299  0.22456  Biso   1.000  C
  C45      1.0000 0.55577  0.40337  0.21683  Biso   1.000  C
  C46      1.0000 0.65128  0.30170  0.03772  Biso   1.000  C
  C47      1.0000 0.62274  0.27062  0.03118  Biso   1.000  C
  C48      1.0000 0.59483  0.27693  0.06052  Biso   1.000  C
  C49      1.0000 0.71392  0.06419  0.90536  Biso   1.000  C
  C50      1.0000 0.69074  0.07427  0.87041  Biso   1.000  C
  C51      1.0000 0.69869  0.05436  0.83477  Biso   1.000  C
  C52      1.0000 0.72885  0.02494  0.83419  Biso   1.000  C
  C53      1.0000 0.75137  0.01383  0.86935  Biso   1.000  C
  C54      1.0000 0.74350  0.03419  0.90487  Biso   1.000  C
  C55      1.0000 0.30564  0.44462  0.40879  Biso   1.000  C
  C56      1.0000 0.32599  0.43748  0.37384  Biso   1.000  C
  C57      1.0000 0.31707  0.46211  0.34017  Biso   1.000  C
  C58      1.0000 0.28787  0.49249  0.34118  Biso   1.000  C
  C59      1.0000 0.26737  0.49981  0.37609  Biso   1.000  C
  C60      1.0000 0.27716  0.47561  0.41001  Biso   1.000  C
  C61      1.0000 0.20056  0.94370  0.59900  Biso   1.000  C
  C62      1.0000 0.17774  0.93624  0.63236  Biso   1.000  C
  C63      1.0000 0.18290  0.96173  0.66566  Biso   1.000  C
  C64      1.0000 0.21042  0.99363  0.66571  Biso   1.000  C
  C65      1.0000 0.23313  0.00151  0.63225  Biso   1.000  C
  C66      1.0000 0.22756  0.97600  0.59888  Biso   1.000  C
  C67      1.0000 0.79019  0.55865  0.08989  Biso   1.000  C
  C68      1.0000 0.81353  0.56767  0.12487  Biso   1.000  C
  C69      1.0000 0.80602  0.54655  0.16021  Biso   1.000  C
  C70      1.0000 0.77569  0.51737  0.16060  Biso   1.000  C
  C71      1.0000 0.75264  0.50768  0.12552  Biso   1.000  C
  C72      1.0000 0.76055  0.52875  0.09014  Biso   1.000  C
  C73      1.0000 0.05396  0.90595  0.70877  Biso   1.000  C
  C74      1.0000 0.06268  0.87072  0.68735  Biso   1.000  C
  C75      1.0000 0.04095  0.83494  0.69439  Biso   1.000  C
  C76      1.0000 0.01151  0.83436  0.72240  Biso   1.000  C
  C77      1.0000 0.00233  0.86967  0.74366  Biso   1.000  C
  C78      1.0000 0.02402  0.90549  0.73620  Biso   1.000  C
  C79      1.0000 0.45968  0.33750  0.30469  Biso   1.000  C
  C80      1.0000 0.43880  0.37342  0.31309  Biso   1.000  C
  C81      1.0000 0.44736  0.40915  0.29195  Biso   1.000  C
  C82      1.0000 0.47633  0.40901  0.26349  Biso   1.000  C
  C83      1.0000 0.49715  0.37307  0.25470  Biso   1.000  C
  C84      1.0000 0.48810  0.33728  0.27569  Biso   1.000  C
  C85      1.0000 0.95750  0.66275  0.19272  Biso   1.000  C
  C86      1.0000 0.93550  0.62703  0.18438  Biso   1.000  C
  C87      1.0000 0.94471  0.59172  0.20688  Biso   1.000  C
  C88      1.0000 0.97562  0.59201  0.23659  Biso   1.000  C
  C89      1.0000 0.99739  0.62784  0.24550  Biso   1.000  C
  C90      1.0000 0.98759  0.66326  0.22324  Biso   1.000  C
  C91      1.0000 0.52555  0.14301  0.82273  Biso   1.000  C
  C92      1.0000 0.56420  0.12840  0.81505  Biso   1.000  C
  C93      1.0000 0.57125  0.11395  0.77676  Biso   1.000  C
  C94      1.0000 0.54056  0.11451  0.74686  Biso   1.000  C
  C95      1.0000 0.50160  0.12862  0.75450  Biso   1.000  C
  C96      1.0000 0.49463  0.14266  0.79306  Biso   1.000  C
  C97      1.0000 0.90975  0.70393  0.05356  Biso   1.000  C
  C98      1.0000 0.87386  0.68414  0.06284  Biso   1.000  C
  C99      1.0000 0.83786  0.69379  0.04079  Biso   1.000  C
  C100     1.0000 0.83765  0.72304  0.01066  Biso   1.000  C
  C101     1.0000 0.87359  0.74264  0.00088  Biso   1.000  C
  C102     1.0000 0.90968  0.73232  0.02266  Biso   1.000  C
  C103     1.0000 0.34543  0.30525  0.44931  Biso   1.000  C
  C104     1.0000 0.37959  0.31058  0.42677  Biso   1.000  C
  C105     1.0000 0.41238  0.28371  0.43287  Biso   1.000  C
  C106     1.0000 0.41129  0.25276  0.46124  Biso   1.000  C
  C107     1.0000 0.37715  0.24723  0.48391  Biso   1.000  C
  C108     1.0000 0.34413  0.27388  0.47715  Biso   1.000  C
  C109     1.0000 0.58648  0.19948  0.94901  Biso   1.000  C
  C110     1.0000 0.62279  0.18095  0.93905  Biso   1.000  C
  C111     1.0000 0.65884  0.19158  0.96036  Biso   1.000  C
  C112     1.0000 0.65872  0.22067  0.99019  Biso   1.000  C
  C113     1.0000 0.62246  0.23940  0.00031  Biso   1.000  C
  C114     1.0000 0.58629  0.22788  0.97952  Biso   1.000  C
  C115     1.0000 0.16080  0.80495  0.55440  Biso   1.000  C
  C116     1.0000 0.12517  0.81192  0.57419  Biso   1.000  C
  C117     1.0000 0.09076  0.78851  0.56400  Biso   1.000  C
  C118     1.0000 0.09178  0.75940  0.53422  Biso   1.000  C
  C119     1.0000 0.12745  0.75207  0.51444  Biso   1.000  C
  C120     1.0000 0.16204  0.77511  0.52534  Biso   1.000  C
  N1       1.0000 0.35378  0.37439  0.40014  Biso   1.000  N
  N2       1.0000 0.40884  0.34223  0.36978  Biso   1.000  N
  N3       1.0000 0.38244  0.40520  0.34365  Biso   1.000  N
  N4       1.0000 0.62939  0.10456  0.84128  Biso   1.000  N
  N5       1.0000 0.59203  0.15152  0.87897  Biso   1.000  N
  N6       1.0000 0.65658  0.12788  0.90423  Biso   1.000  N
  N7       1.0000 0.84384  0.62615  0.09439  Biso   1.000  N
  N8       1.0000 0.90434  0.65525  0.12360  Biso   1.000  N
  N9       1.0000 0.87456  0.59764  0.15420  Biso   1.000  N
  N10      1.0000 0.12049  0.90277  0.65972  Biso   1.000  N
  N11      1.0000 0.09428  0.84141  0.63090  Biso   1.000  N
  N12      1.0000 0.15166  0.87348  0.60424  Biso   1.000  N
  N13      1.0000 0.81797  0.92557  0.88776  Biso   1.000  N
  N14      1.0000 0.83107  0.93904  0.85177  Biso   1.000  N
  N15      1.0000 0.91962  0.88900  0.80965  Biso   1.000  N
  N16      1.0000 0.93159  0.85076  0.82244  Biso   1.000  N
  N17      1.0000 0.89024  0.80956  0.91509  Biso   1.000  N
  N18      1.0000 0.85624  0.82702  0.92952  Biso   1.000  N
  N19      1.0000 0.19618  0.58201  0.39697  Biso   1.000  N
  N20      1.0000 0.18214  0.57059  0.35937  Biso   1.000  N
  N21      1.0000 0.08456  0.61111  0.31621  Biso   1.000  N
  N22      1.0000 0.06867  0.64614  0.33127  Biso   1.000  N
  N23      1.0000 0.11101  0.68416  0.42867  Biso   1.000  N
  N24      1.0000 0.14844  0.67110  0.44333  Biso   1.000  N
  N25      1.0000 0.30032  0.08674  0.61076  Biso   1.000  N
  N26      1.0000 0.31030  0.08047  0.65069  Biso   1.000  N
  N27      1.0000 0.40804  0.12238  0.69084  Biso   1.000  N
  N28      1.0000 0.43515  0.13445  0.66337  Biso   1.000  N
  N29      1.0000 0.39430  0.17237  0.56486  Biso   1.000  N
  N30      1.0000 0.35375  0.16657  0.55538  Biso   1.000  N
  N31      1.0000 0.68242  0.42231  0.10851  Biso   1.000  N
  N32      1.0000 0.66949  0.43713  0.14390  Biso   1.000  N
  N33      1.0000 0.57852  0.39184  0.18665  Biso   1.000  N
  N34      1.0000 0.56531  0.35418  0.17389  Biso   1.000  N
  N35      1.0000 0.60611  0.30931  0.08305  Biso   1.000  N
  N36      1.0000 0.64101  0.32495  0.06861  Biso   1.000  N
