data_image0
_cell_length_a       7.4562
_cell_length_b       18.1954
_cell_length_c       18.1954
_cell_angle_alpha    119.991
_cell_angle_beta     90
_cell_angle_gamma    90

_symmetry_space_group_name_H-M    "P 1"
_symmetry_int_tables_number       1

loop_
  _symmetry_equiv_pos_as_xyz
  'x, y, z'

loop_
  _atom_site_label
  _atom_site_occupancy
  _atom_site_fract_x
  _atom_site_fract_y
  _atom_site_fract_z
  _atom_site_thermal_displace_type
  _atom_site_B_iso_or_equiv
  _atom_site_type_symbol
  Si1      1.0000 0.78894  0.83429  0.33420  Biso   1.000  Si
  Si2      1.0000 0.78897  0.49993  0.16566  Biso   1.000  Si
  Si3      1.0000 0.78897  0.66578  0.50004  Biso   1.000  Si
  Si4      1.0000 0.78894  0.16571  0.66580  Biso   1.000  Si
  Si5      1.0000 0.78897  0.50007  0.83434  Biso   1.000  Si
  Si6      1.0000 0.78897  0.33422  0.49996  Biso   1.000  Si
  Si7      1.0000 0.78897  0.49996  0.33422  Biso   1.000  Si
  Si8      1.0000 0.78894  0.66580  0.16571  Biso   1.000  Si
  Si9      1.0000 0.78897  0.83434  0.50007  Biso   1.000  Si
  Si10     1.0000 0.78897  0.50004  0.66578  Biso   1.000  Si
  Si11     1.0000 0.78894  0.33420  0.83429  Biso   1.000  Si
  Si12     1.0000 0.78897  0.16566  0.49993  Biso   1.000  Si
  Si13     1.0000 0.21106  0.16571  0.66580  Biso   1.000  Si
  Si14     1.0000 0.21103  0.50007  0.83434  Biso   1.000  Si
  Si15     1.0000 0.21103  0.33422  0.49996  Biso   1.000  Si
  Si16     1.0000 0.21106  0.83429  0.33420  Biso   1.000  Si
  Si17     1.0000 0.21103  0.49993  0.16566  Biso   1.000  Si
  Si18     1.0000 0.21103  0.66578  0.50004  Biso   1.000  Si
  Si19     1.0000 0.21103  0.50004  0.66578  Biso   1.000  Si
  Si20     1.0000 0.21106  0.33420  0.83429  Biso   1.000  Si
  Si21     1.0000 0.21103  0.16566  0.49993  Biso   1.000  Si
  Si22     1.0000 0.21103  0.49996  0.33422  Biso   1.000  Si
  Si23     1.0000 0.21106  0.66580  0.16571  Biso   1.000  Si
  Si24     1.0000 0.21103  0.83434  0.50007  Biso   1.000  Si
  Si25     1.0000 0.50000  0.90531  0.26275  Biso   1.000  Si
  Si26     1.0000 0.50000  0.35751  0.09471  Biso   1.000  Si
  Si27     1.0000 0.50000  0.73716  0.64245  Biso   1.000  Si
  Si28     1.0000 0.50000  0.09469  0.73725  Biso   1.000  Si
  Si29     1.0000 0.50000  0.64249  0.90529  Biso   1.000  Si
  Si30     1.0000 0.50000  0.26284  0.35755  Biso   1.000  Si
  Si31     1.0000 0.50000  0.35755  0.26284  Biso   1.000  Si
  Si32     1.0000 0.50000  0.73725  0.09469  Biso   1.000  Si
  Si33     1.0000 0.50000  0.90529  0.64249  Biso   1.000  Si
  Si34     1.0000 0.50000  0.64245  0.73716  Biso   1.000  Si
  Si35     1.0000 0.50000  0.26275  0.90531  Biso   1.000  Si
  Si36     1.0000 0.50000  0.09471  0.35751  Biso   1.000  Si
  O1       1.0000 0.75641  0.73366  0.26634  Biso   1.000  O
  O2       1.0000 0.75647  0.53267  0.26629  Biso   1.000  O
  O3       1.0000 0.75646  0.73371  0.46733  Biso   1.000  O
  O4       1.0000 0.75641  0.26634  0.73366  Biso   1.000  O
  O5       1.0000 0.75647  0.46733  0.73371  Biso   1.000  O
  O6       1.0000 0.75646  0.26629  0.53267  Biso   1.000  O
  O7       1.0000 0.24359  0.26634  0.73366  Biso   1.000  O
  O8       1.0000 0.24354  0.46733  0.73371  Biso   1.000  O
  O9       1.0000 0.24354  0.26629  0.53267  Biso   1.000  O
  O10      1.0000 0.24359  0.73366  0.26634  Biso   1.000  O
  O11      1.0000 0.24354  0.53267  0.26629  Biso   1.000  O
  O12      1.0000 0.24354  0.73371  0.46733  Biso   1.000  O
  O13      1.0000 0.68022  0.89377  0.30661  Biso   1.000  O
  O14      1.0000 0.68022  0.41289  0.10619  Biso   1.000  O
  O15      1.0000 0.68022  0.69329  0.58707  Biso   1.000  O
  O16      1.0000 0.68022  0.10623  0.69339  Biso   1.000  O
  O17      1.0000 0.68022  0.58711  0.89381  Biso   1.000  O
  O18      1.0000 0.68022  0.30671  0.41293  Biso   1.000  O
  O19      1.0000 0.68022  0.41293  0.30671  Biso   1.000  O
  O20      1.0000 0.68022  0.69339  0.10623  Biso   1.000  O
  O21      1.0000 0.68022  0.89381  0.58711  Biso   1.000  O
  O22      1.0000 0.68022  0.58707  0.69329  Biso   1.000  O
  O23      1.0000 0.68022  0.30661  0.89377  Biso   1.000  O
  O24      1.0000 0.68022  0.10619  0.41289  Biso   1.000  O
  O25      1.0000 0.31978  0.10623  0.69339  Biso   1.000  O
  O26      1.0000 0.31978  0.58711  0.89381  Biso   1.000  O
  O27      1.0000 0.31978  0.30671  0.41293  Biso   1.000  O
  O28      1.0000 0.31978  0.89377  0.30661  Biso   1.000  O
  O29      1.0000 0.31978  0.41289  0.10619  Biso   1.000  O
  O30      1.0000 0.31978  0.69329  0.58707  Biso   1.000  O
  O31      1.0000 0.31978  0.58707  0.69329  Biso   1.000  O
  O32      1.0000 0.31978  0.30661  0.89377  Biso   1.000  O
  O33      1.0000 0.31978  0.10619  0.41289  Biso   1.000  O
  O34      1.0000 0.31978  0.41293  0.30671  Biso   1.000  O
  O35      1.0000 0.31978  0.69339  0.10623  Biso   1.000  O
  O36      1.0000 0.31978  0.89381  0.58711  Biso   1.000  O
  O37      1.0000 0.71762  0.85335  0.42665  Biso   1.000  O
  O38      1.0000 0.71762  0.57335  0.14665  Biso   1.000  O
  O39      1.0000 0.71762  0.57338  0.42662  Biso   1.000  O
  O40      1.0000 0.71762  0.14665  0.57335  Biso   1.000  O
  O41      1.0000 0.71762  0.42665  0.85335  Biso   1.000  O
  O42      1.0000 0.71762  0.42662  0.57338  Biso   1.000  O
  O43      1.0000 0.28238  0.14665  0.57335  Biso   1.000  O
  O44      1.0000 0.28238  0.42665  0.85335  Biso   1.000  O
  O45      1.0000 0.28238  0.42662  0.57338  Biso   1.000  O
  O46      1.0000 0.28238  0.85335  0.42665  Biso   1.000  O
  O47      1.0000 0.28238  0.57335  0.14665  Biso   1.000  O
  O48      1.0000 0.28238  0.57338  0.42662  Biso   1.000  O
  O49      1.0000 1.00000  0.85818  0.33922  Biso   1.000  O
  O50      1.0000 0.00000  0.48103  0.14174  Biso   1.000  O
  O51      1.0000 0.00000  0.66075  0.51892  Biso   1.000  O
  O52      1.0000 1.00000  0.14182  0.66078  Biso   1.000  O
  O53      1.0000 0.00000  0.51897  0.85826  Biso   1.000  O
  O54      1.0000 0.00000  0.33925  0.48108  Biso   1.000  O
  O55      1.0000 1.00000  0.48108  0.33925  Biso   1.000  O
  O56      1.0000 1.00000  0.66078  0.14182  Biso   1.000  O
  O57      1.0000 1.00000  0.85826  0.51897  Biso   1.000  O
  O58      1.0000 1.00000  0.51892  0.66075  Biso   1.000  O
  O59      1.0000 1.00000  0.33922  0.85818  Biso   1.000  O
  O60      1.0000 1.00000  0.14174  0.48103  Biso   1.000  O
  O61      1.0000 0.50000  0.00003  0.27510  Biso   1.000  O
  O62      1.0000 0.50000  0.27510  0.00003  Biso   1.000  O
  O63      1.0000 0.50000  0.72484  0.72484  Biso   1.000  O
  O64      1.0000 0.50000  0.99997  0.72490  Biso   1.000  O
  O65      1.0000 0.50000  0.72490  0.99997  Biso   1.000  O
  O66      1.0000 0.50000  0.27516  0.27516  Biso   1.000  O
  O67      1.0000 0.50000  0.83873  0.16127  Biso   1.000  O
  O68      1.0000 0.50000  0.32271  0.16137  Biso   1.000  O
  O69      1.0000 0.50000  0.83863  0.67729  Biso   1.000  O
  O70      1.0000 0.50000  0.16127  0.83873  Biso   1.000  O
  O71      1.0000 0.50000  0.67729  0.83863  Biso   1.000  O
  O72      1.0000 0.50000  0.16137  0.32271  Biso   1.000  O
