data_image0
_cell_length_a       17.3752
_cell_length_b       48.4164
_cell_length_c       48.4175
_cell_angle_alpha    119.983
_cell_angle_beta     90
_cell_angle_gamma    90

_symmetry_space_group_name_H-M    "P 1"
_symmetry_int_tables_number       1

loop_
  _symmetry_equiv_pos_as_xyz
  'x, y, z'

loop_
  _atom_site_label
  _atom_site_occupancy
  _atom_site_fract_x
  _atom_site_fract_y
  _atom_site_fract_z
  _atom_site_thermal_displace_type
  _atom_site_B_iso_or_equiv
  _atom_site_type_symbol
  Zr1      1.0000 0.90585  0.53390  1.00000  Biso   1.000  Zr
  Zr2      1.0000 0.90584  0.46612  0.46612  Biso   1.000  Zr
  Zr3      1.0000 0.90586  1.00000  0.53390  Biso   1.000  Zr
  Zr4      1.0000 0.90585  0.46610  0.00000  Biso   1.000  Zr
  Zr5      1.0000 0.90584  0.53388  0.53388  Biso   1.000  Zr
  Zr6      1.0000 0.90586  0.00000  0.46610  Biso   1.000  Zr
  Zr7      1.0000 0.09415  0.53390  1.00000  Biso   1.000  Zr
  Zr8      1.0000 0.09414  1.00000  0.53390  Biso   1.000  Zr
  Zr9      1.0000 0.09416  0.46612  0.46612  Biso   1.000  Zr
  Zr10     1.0000 0.09415  0.46610  0.00000  Biso   1.000  Zr
  Zr11     1.0000 0.09414  0.00000  0.46610  Biso   1.000  Zr
  Zr12     1.0000 0.09416  0.53388  0.53388  Biso   1.000  Zr
  Zr13     1.0000 0.00000  0.52864  0.05723  Biso   1.000  Zr
  Zr14     1.0000 0.00000  0.52862  0.47137  Biso   1.000  Zr
  Zr15     1.0000 1.00000  0.94277  0.47137  Biso   1.000  Zr
  Zr16     1.0000 1.00000  0.47136  0.94277  Biso   1.000  Zr
  Zr17     1.0000 0.00000  0.47138  0.52863  Biso   1.000  Zr
  Zr18     1.0000 1.00000  0.05723  0.52863  Biso   1.000  Zr
  H1       1.0000 0.75202  0.61463  0.06199  Biso   1.000  H
  H2       1.0000 0.75228  0.44732  0.38535  Biso   1.000  H
  H3       1.0000 0.75209  0.93797  0.55258  Biso   1.000  H
  H4       1.0000 0.75202  0.38537  0.93801  Biso   1.000  H
  H5       1.0000 0.75228  0.55268  0.61465  Biso   1.000  H
  H6       1.0000 0.75209  0.06203  0.44742  Biso   1.000  H
  H7       1.0000 0.24792  0.55258  0.93796  Biso   1.000  H
  H8       1.0000 0.24798  0.06201  0.61463  Biso   1.000  H
  H9       1.0000 0.24773  0.38536  0.44732  Biso   1.000  H
  H10      1.0000 0.24792  0.44742  0.06204  Biso   1.000  H
  H11      1.0000 0.24798  0.93799  0.38537  Biso   1.000  H
  H12      1.0000 0.24773  0.61464  0.55268  Biso   1.000  H
  H13      1.0000 0.24798  0.38537  0.93801  Biso   1.000  H
  H14      1.0000 0.24772  0.55268  0.61465  Biso   1.000  H
  H15      1.0000 0.24791  0.06203  0.44742  Biso   1.000  H
  H16      1.0000 0.24798  0.61463  0.06199  Biso   1.000  H
  H17      1.0000 0.24772  0.44732  0.38535  Biso   1.000  H
  H18      1.0000 0.24791  0.93797  0.55258  Biso   1.000  H
  H19      1.0000 0.75208  0.44742  0.06204  Biso   1.000  H
  H20      1.0000 0.75202  0.93799  0.38537  Biso   1.000  H
  H21      1.0000 0.75227  0.61464  0.55268  Biso   1.000  H
  H22      1.0000 0.75208  0.55258  0.93796  Biso   1.000  H
  H23      1.0000 0.75202  0.06201  0.61463  Biso   1.000  H
  H24      1.0000 0.75227  0.38536  0.44732  Biso   1.000  H
  H25      1.0000 0.66920  0.65765  0.10279  Biso   1.000  H
  H26      1.0000 0.66936  0.44507  0.34234  Biso   1.000  H
  H27      1.0000 0.66922  0.89716  0.55477  Biso   1.000  H
  H28      1.0000 0.66920  0.34235  0.89721  Biso   1.000  H
  H29      1.0000 0.66936  0.55493  0.65766  Biso   1.000  H
  H30      1.0000 0.66922  0.10284  0.44523  Biso   1.000  H
  H31      1.0000 0.33075  0.55478  0.89715  Biso   1.000  H
  H32      1.0000 0.33080  0.10281  0.65765  Biso   1.000  H
  H33      1.0000 0.33064  0.34234  0.44507  Biso   1.000  H
  H34      1.0000 0.33075  0.44522  0.10285  Biso   1.000  H
  H35      1.0000 0.33080  0.89719  0.34235  Biso   1.000  H
  H36      1.0000 0.33064  0.65766  0.55493  Biso   1.000  H
  H37      1.0000 0.33080  0.34235  0.89721  Biso   1.000  H
  H38      1.0000 0.33064  0.55493  0.65766  Biso   1.000  H
  H39      1.0000 0.33078  0.10284  0.44523  Biso   1.000  H
  H40      1.0000 0.33080  0.65765  0.10279  Biso   1.000  H
  H41      1.0000 0.33064  0.44507  0.34234  Biso   1.000  H
  H42      1.0000 0.33078  0.89716  0.55477  Biso   1.000  H
  H43      1.0000 0.66925  0.44522  0.10285  Biso   1.000  H
  H44      1.0000 0.66920  0.89719  0.34235  Biso   1.000  H
  H45      1.0000 0.66936  0.65766  0.55493  Biso   1.000  H
  H46      1.0000 0.66925  0.55478  0.89715  Biso   1.000  H
  H47      1.0000 0.66920  0.10281  0.65765  Biso   1.000  H
  H48      1.0000 0.66936  0.34234  0.44507  Biso   1.000  H
  H49      1.0000 0.79184  0.65156  0.17682  Biso   1.000  H
  H50      1.0000 0.79142  0.52536  0.34854  Biso   1.000  H
  H51      1.0000 0.79183  0.82316  0.47464  Biso   1.000  H
  H52      1.0000 0.79184  0.34844  0.82318  Biso   1.000  H
  H53      1.0000 0.79142  0.47464  0.65146  Biso   1.000  H
  H54      1.0000 0.79183  0.17684  0.52536  Biso   1.000  H
  H55      1.0000 0.20810  0.47465  0.82315  Biso   1.000  H
  H56      1.0000 0.20816  0.17683  0.65154  Biso   1.000  H
  H57      1.0000 0.20859  0.34854  0.52536  Biso   1.000  H
  H58      1.0000 0.20810  0.52535  0.17685  Biso   1.000  H
  H59      1.0000 0.20816  0.82317  0.34846  Biso   1.000  H
  H60      1.0000 0.20859  0.65146  0.47464  Biso   1.000  H
  H61      1.0000 0.20816  0.34844  0.82318  Biso   1.000  H
  H62      1.0000 0.20858  0.47464  0.65146  Biso   1.000  H
  H63      1.0000 0.20817  0.17684  0.52536  Biso   1.000  H
  H64      1.0000 0.20816  0.65156  0.17682  Biso   1.000  H
  H65      1.0000 0.20858  0.52536  0.34854  Biso   1.000  H
  H66      1.0000 0.20817  0.82316  0.47464  Biso   1.000  H
  H67      1.0000 0.79190  0.52535  0.17685  Biso   1.000  H
  H68      1.0000 0.79184  0.82317  0.34846  Biso   1.000  H
  H69      1.0000 0.79141  0.65146  0.47464  Biso   1.000  H
  H70      1.0000 0.79190  0.47465  0.82315  Biso   1.000  H
  H71      1.0000 0.79184  0.17683  0.65154  Biso   1.000  H
  H72      1.0000 0.79141  0.34854  0.52536  Biso   1.000  H
  H73      1.0000 0.87282  0.60795  0.13563  Biso   1.000  H
  H74      1.0000 0.87250  0.52779  0.39214  Biso   1.000  H
  H75      1.0000 0.87285  0.86437  0.47226  Biso   1.000  H
  H76      1.0000 0.87282  0.39205  0.86437  Biso   1.000  H
  H77      1.0000 0.87250  0.47221  0.60786  Biso   1.000  H
  H78      1.0000 0.87285  0.13563  0.52774  Biso   1.000  H
  H79      1.0000 0.12712  0.47226  0.86437  Biso   1.000  H
  H80      1.0000 0.12719  0.13564  0.60794  Biso   1.000  H
  H81      1.0000 0.12750  0.39214  0.52779  Biso   1.000  H
  H82      1.0000 0.12712  0.52774  0.13563  Biso   1.000  H
  H83      1.0000 0.12719  0.86436  0.39206  Biso   1.000  H
  H84      1.0000 0.12750  0.60786  0.47221  Biso   1.000  H
  H85      1.0000 0.12718  0.39205  0.86437  Biso   1.000  H
  H86      1.0000 0.12750  0.47221  0.60786  Biso   1.000  H
  H87      1.0000 0.12715  0.13563  0.52774  Biso   1.000  H
  H88      1.0000 0.12718  0.60795  0.13563  Biso   1.000  H
  H89      1.0000 0.12750  0.52779  0.39214  Biso   1.000  H
  H90      1.0000 0.12715  0.86437  0.47226  Biso   1.000  H
  H91      1.0000 0.87288  0.52774  0.13563  Biso   1.000  H
  H92      1.0000 0.87281  0.86436  0.39206  Biso   1.000  H
  H93      1.0000 0.87250  0.60786  0.47221  Biso   1.000  H
  H94      1.0000 0.87288  0.47226  0.86437  Biso   1.000  H
  H95      1.0000 0.87281  0.13564  0.60794  Biso   1.000  H
  H96      1.0000 0.87250  0.39214  0.52779  Biso   1.000  H
  H97      1.0000 0.66854  0.71060  0.14323  Biso   1.000  H
  H98      1.0000 0.66865  0.43262  0.28941  Biso   1.000  H
  H99      1.0000 0.66839  0.85682  0.56728  Biso   1.000  H
  H100     1.0000 0.66854  0.28940  0.85677  Biso   1.000  H
  H101     1.0000 0.66865  0.56738  0.71059  Biso   1.000  H
  H102     1.0000 0.66839  0.14318  0.43272  Biso   1.000  H
  H103     1.0000 0.33160  0.56729  0.85681  Biso   1.000  H
  H104     1.0000 0.33142  0.14325  0.71059  Biso   1.000  H
  H105     1.0000 0.33139  0.28943  0.43263  Biso   1.000  H
  H106     1.0000 0.33160  0.43271  0.14319  Biso   1.000  H
  H107     1.0000 0.33142  0.85675  0.28941  Biso   1.000  H
  H108     1.0000 0.33139  0.71057  0.56737  Biso   1.000  H
  H109     1.0000 0.33146  0.28940  0.85677  Biso   1.000  H
  H110     1.0000 0.33135  0.56738  0.71059  Biso   1.000  H
  H111     1.0000 0.33161  0.14318  0.43272  Biso   1.000  H
  H112     1.0000 0.33146  0.71060  0.14323  Biso   1.000  H
  H113     1.0000 0.33135  0.43262  0.28941  Biso   1.000  H
  H114     1.0000 0.33161  0.85682  0.56728  Biso   1.000  H
  H115     1.0000 0.66840  0.43271  0.14319  Biso   1.000  H
  H116     1.0000 0.66858  0.85675  0.28941  Biso   1.000  H
  H117     1.0000 0.66861  0.71057  0.56737  Biso   1.000  H
  H118     1.0000 0.66840  0.56729  0.85681  Biso   1.000  H
  H119     1.0000 0.66858  0.14325  0.71059  Biso   1.000  H
  H120     1.0000 0.66861  0.28943  0.43263  Biso   1.000  H
  H121     1.0000 0.58858  0.75356  0.18483  Biso   1.000  H
  H122     1.0000 0.58878  0.43123  0.24640  Biso   1.000  H
  H123     1.0000 0.58842  0.81525  0.56872  Biso   1.000  H
  H124     1.0000 0.58858  0.24644  0.81517  Biso   1.000  H
  H125     1.0000 0.58878  0.56877  0.75360  Biso   1.000  H
  H126     1.0000 0.58842  0.18475  0.43128  Biso   1.000  H
  H127     1.0000 0.41162  0.56872  0.81525  Biso   1.000  H
  H128     1.0000 0.41137  0.18484  0.75356  Biso   1.000  H
  H129     1.0000 0.41123  0.24641  0.43123  Biso   1.000  H
  H130     1.0000 0.41162  0.43128  0.18475  Biso   1.000  H
  H131     1.0000 0.41137  0.81516  0.24644  Biso   1.000  H
  H132     1.0000 0.41123  0.75359  0.56877  Biso   1.000  H
  H133     1.0000 0.41142  0.24644  0.81517  Biso   1.000  H
  H134     1.0000 0.41122  0.56877  0.75360  Biso   1.000  H
  H135     1.0000 0.41158  0.18475  0.43128  Biso   1.000  H
  H136     1.0000 0.41142  0.75356  0.18483  Biso   1.000  H
  H137     1.0000 0.41122  0.43123  0.24640  Biso   1.000  H
  H138     1.0000 0.41158  0.81525  0.56872  Biso   1.000  H
  H139     1.0000 0.58838  0.43128  0.18475  Biso   1.000  H
  H140     1.0000 0.58863  0.81516  0.24644  Biso   1.000  H
  H141     1.0000 0.58877  0.75359  0.56877  Biso   1.000  H
  H142     1.0000 0.58838  0.56872  0.81525  Biso   1.000  H
  H143     1.0000 0.58863  0.18484  0.75356  Biso   1.000  H
  H144     1.0000 0.58877  0.24641  0.43123  Biso   1.000  H
  H145     1.0000 0.59131  0.70559  0.23926  Biso   1.000  H
  H146     1.0000 0.59104  0.53360  0.29438  Biso   1.000  H
  H147     1.0000 0.59148  0.76065  0.46636  Biso   1.000  H
  H148     1.0000 0.59131  0.29441  0.76074  Biso   1.000  H
  H149     1.0000 0.59104  0.46640  0.70562  Biso   1.000  H
  H150     1.0000 0.59148  0.23935  0.53364  Biso   1.000  H
  H151     1.0000 0.40845  0.46636  0.76064  Biso   1.000  H
  H152     1.0000 0.40870  0.23929  0.70561  Biso   1.000  H
  H153     1.0000 0.40899  0.29439  0.53360  Biso   1.000  H
  H154     1.0000 0.40845  0.53364  0.23936  Biso   1.000  H
  H155     1.0000 0.40870  0.76071  0.29439  Biso   1.000  H
  H156     1.0000 0.40899  0.70561  0.46640  Biso   1.000  H
  H157     1.0000 0.40869  0.29441  0.76074  Biso   1.000  H
  H158     1.0000 0.40896  0.46640  0.70562  Biso   1.000  H
  H159     1.0000 0.40852  0.23935  0.53364  Biso   1.000  H
  H160     1.0000 0.40869  0.70559  0.23926  Biso   1.000  H
  H161     1.0000 0.40896  0.53360  0.29438  Biso   1.000  H
  H162     1.0000 0.40852  0.76065  0.46636  Biso   1.000  H
  H163     1.0000 0.59155  0.53364  0.23936  Biso   1.000  H
  H164     1.0000 0.59130  0.76071  0.29439  Biso   1.000  H
  H165     1.0000 0.59101  0.70561  0.46640  Biso   1.000  H
  H166     1.0000 0.59155  0.46636  0.76064  Biso   1.000  H
  H167     1.0000 0.59130  0.23929  0.70561  Biso   1.000  H
  H168     1.0000 0.59101  0.29439  0.53360  Biso   1.000  H
  H169     1.0000 0.66993  0.66229  0.19747  Biso   1.000  H
  H170     1.0000 0.66956  0.53515  0.33773  Biso   1.000  H
  H171     1.0000 0.67005  0.80242  0.46476  Biso   1.000  H
  H172     1.0000 0.66993  0.33771  0.80253  Biso   1.000  H
  H173     1.0000 0.66956  0.46485  0.66227  Biso   1.000  H
  H174     1.0000 0.67005  0.19758  0.53524  Biso   1.000  H
  H175     1.0000 0.32985  0.46477  0.80241  Biso   1.000  H
  H176     1.0000 0.33009  0.19750  0.66230  Biso   1.000  H
  H177     1.0000 0.33048  0.33775  0.53516  Biso   1.000  H
  H178     1.0000 0.32985  0.53523  0.19759  Biso   1.000  H
  H179     1.0000 0.33009  0.80250  0.33770  Biso   1.000  H
  H180     1.0000 0.33048  0.66225  0.46484  Biso   1.000  H
  H181     1.0000 0.33007  0.33771  0.80253  Biso   1.000  H
  H182     1.0000 0.33044  0.46485  0.66227  Biso   1.000  H
  H183     1.0000 0.32995  0.19758  0.53524  Biso   1.000  H
  H184     1.0000 0.33007  0.66229  0.19747  Biso   1.000  H
  H185     1.0000 0.33044  0.53515  0.33773  Biso   1.000  H
  H186     1.0000 0.32995  0.80242  0.46476  Biso   1.000  H
  H187     1.0000 0.67015  0.53523  0.19759  Biso   1.000  H
  H188     1.0000 0.66991  0.80250  0.33770  Biso   1.000  H
  H189     1.0000 0.66952  0.66225  0.46484  Biso   1.000  H
  H190     1.0000 0.67015  0.46477  0.80241  Biso   1.000  H
  H191     1.0000 0.66991  0.19750  0.66230  Biso   1.000  H
  H192     1.0000 0.66952  0.33775  0.53516  Biso   1.000  H
  C1       1.0000 0.86630  0.58239  0.07204  Biso   1.000  C
  C2       1.0000 0.86632  0.48968  0.41762  Biso   1.000  C
  C3       1.0000 0.86636  0.92794  0.51031  Biso   1.000  C
  C4       1.0000 0.86630  0.41761  0.92796  Biso   1.000  C
  C5       1.0000 0.86632  0.51032  0.58238  Biso   1.000  C
  C6       1.0000 0.86636  0.07206  0.48969  Biso   1.000  C
  C7       1.0000 0.13364  0.51031  0.92794  Biso   1.000  C
  C8       1.0000 0.13369  0.07205  0.58239  Biso   1.000  C
  C9       1.0000 0.13369  0.41763  0.48968  Biso   1.000  C
  C10      1.0000 0.13364  0.48969  0.07206  Biso   1.000  C
  C11      1.0000 0.13369  0.92795  0.41761  Biso   1.000  C
  C12      1.0000 0.13369  0.58237  0.51032  Biso   1.000  C
  C13      1.0000 0.13370  0.41761  0.92796  Biso   1.000  C
  C14      1.0000 0.13368  0.51032  0.58238  Biso   1.000  C
  C15      1.0000 0.13364  0.07206  0.48969  Biso   1.000  C
  C16      1.0000 0.13370  0.58239  0.07204  Biso   1.000  C
  C17      1.0000 0.13368  0.48968  0.41762  Biso   1.000  C
  C18      1.0000 0.13364  0.92794  0.51031  Biso   1.000  C
  C19      1.0000 0.86636  0.48969  0.07206  Biso   1.000  C
  C20      1.0000 0.86631  0.92795  0.41761  Biso   1.000  C
  C21      1.0000 0.86631  0.58237  0.51032  Biso   1.000  C
  C22      1.0000 0.86636  0.51031  0.92794  Biso   1.000  C
  C23      1.0000 0.86631  0.07205  0.58239  Biso   1.000  C
  C24      1.0000 0.86631  0.41763  0.48968  Biso   1.000  C
  C25      1.0000 0.81750  0.60862  0.09630  Biso   1.000  C
  C26      1.0000 0.81749  0.48770  0.39140  Biso   1.000  C
  C27      1.0000 0.81756  0.90367  0.51226  Biso   1.000  C
  C28      1.0000 0.81750  0.39138  0.90370  Biso   1.000  C
  C29      1.0000 0.81749  0.51230  0.60860  Biso   1.000  C
  C30      1.0000 0.81756  0.09633  0.48774  Biso   1.000  C
  C31      1.0000 0.18244  0.51226  0.90367  Biso   1.000  C
  C32      1.0000 0.18250  0.09631  0.60862  Biso   1.000  C
  C33      1.0000 0.18252  0.39140  0.48771  Biso   1.000  C
  C34      1.0000 0.18244  0.48774  0.09633  Biso   1.000  C
  C35      1.0000 0.18250  0.90369  0.39138  Biso   1.000  C
  C36      1.0000 0.18252  0.60860  0.51229  Biso   1.000  C
  C37      1.0000 0.18250  0.39138  0.90370  Biso   1.000  C
  C38      1.0000 0.18251  0.51230  0.60860  Biso   1.000  C
  C39      1.0000 0.18244  0.09633  0.48774  Biso   1.000  C
  C40      1.0000 0.18250  0.60862  0.09630  Biso   1.000  C
  C41      1.0000 0.18251  0.48770  0.39140  Biso   1.000  C
  C42      1.0000 0.18244  0.90367  0.51226  Biso   1.000  C
  C43      1.0000 0.81756  0.48774  0.09633  Biso   1.000  C
  C44      1.0000 0.81750  0.90369  0.39138  Biso   1.000  C
  C45      1.0000 0.81748  0.60860  0.51229  Biso   1.000  C
  C46      1.0000 0.81756  0.51226  0.90367  Biso   1.000  C
  C47      1.0000 0.81750  0.09631  0.60862  Biso   1.000  C
  C48      1.0000 0.81748  0.39140  0.48771  Biso   1.000  C
  C49      1.0000 0.76028  0.62297  0.08721  Biso   1.000  C
  C50      1.0000 0.76040  0.46422  0.37703  Biso   1.000  C
  C51      1.0000 0.76033  0.91275  0.53569  Biso   1.000  C
  C52      1.0000 0.76028  0.37703  0.91279  Biso   1.000  C
  C53      1.0000 0.76040  0.53578  0.62297  Biso   1.000  C
  C54      1.0000 0.76033  0.08725  0.46431  Biso   1.000  C
  C55      1.0000 0.23966  0.53570  0.91275  Biso   1.000  C
  C56      1.0000 0.23972  0.08723  0.62297  Biso   1.000  C
  C57      1.0000 0.23961  0.37703  0.46422  Biso   1.000  C
  C58      1.0000 0.23966  0.46430  0.08725  Biso   1.000  C
  C59      1.0000 0.23972  0.91277  0.37703  Biso   1.000  C
  C60      1.0000 0.23961  0.62297  0.53578  Biso   1.000  C
  C61      1.0000 0.23972  0.37703  0.91279  Biso   1.000  C
  C62      1.0000 0.23960  0.53578  0.62297  Biso   1.000  C
  C63      1.0000 0.23967  0.08725  0.46431  Biso   1.000  C
  C64      1.0000 0.23972  0.62297  0.08721  Biso   1.000  C
  C65      1.0000 0.23960  0.46422  0.37703  Biso   1.000  C
  C66      1.0000 0.23967  0.91275  0.53569  Biso   1.000  C
  C67      1.0000 0.76034  0.46430  0.08725  Biso   1.000  C
  C68      1.0000 0.76028  0.91277  0.37703  Biso   1.000  C
  C69      1.0000 0.76039  0.62297  0.53578  Biso   1.000  C
  C70      1.0000 0.76034  0.53570  0.91275  Biso   1.000  C
  C71      1.0000 0.76028  0.08723  0.62297  Biso   1.000  C
  C72      1.0000 0.76039  0.37703  0.46422  Biso   1.000  C
  C73      1.0000 0.71446  0.64718  0.11015  Biso   1.000  C
  C74      1.0000 0.71453  0.46294  0.35282  Biso   1.000  C
  C75      1.0000 0.71449  0.88980  0.53694  Biso   1.000  C
  C76      1.0000 0.71446  0.35282  0.88985  Biso   1.000  C
  C77      1.0000 0.71453  0.53706  0.64718  Biso   1.000  C
  C78      1.0000 0.71449  0.11020  0.46306  Biso   1.000  C
  C79      1.0000 0.28549  0.53695  0.88980  Biso   1.000  C
  C80      1.0000 0.28554  0.11017  0.64717  Biso   1.000  C
  C81      1.0000 0.28548  0.35283  0.46294  Biso   1.000  C
  C82      1.0000 0.28549  0.46305  0.11020  Biso   1.000  C
  C83      1.0000 0.28554  0.88983  0.35283  Biso   1.000  C
  C84      1.0000 0.28548  0.64717  0.53706  Biso   1.000  C
  C85      1.0000 0.28554  0.35282  0.88985  Biso   1.000  C
  C86      1.0000 0.28547  0.53706  0.64718  Biso   1.000  C
  C87      1.0000 0.28551  0.11020  0.46306  Biso   1.000  C
  C88      1.0000 0.28554  0.64718  0.11015  Biso   1.000  C
  C89      1.0000 0.28547  0.46294  0.35282  Biso   1.000  C
  C90      1.0000 0.28551  0.88980  0.53694  Biso   1.000  C
  C91      1.0000 0.71451  0.46305  0.11020  Biso   1.000  C
  C92      1.0000 0.71446  0.88983  0.35283  Biso   1.000  C
  C93      1.0000 0.71452  0.64717  0.53706  Biso   1.000  C
  C94      1.0000 0.71451  0.53695  0.88980  Biso   1.000  C
  C95      1.0000 0.71446  0.11017  0.64717  Biso   1.000  C
  C96      1.0000 0.71452  0.35283  0.46294  Biso   1.000  C
  C97      1.0000 0.72437  0.65773  0.14281  Biso   1.000  C
  C98      1.0000 0.72427  0.48508  0.34229  Biso   1.000  C
  C99      1.0000 0.72438  0.85715  0.51483  Biso   1.000  C
  C100     1.0000 0.72437  0.34227  0.85719  Biso   1.000  C
  C101     1.0000 0.72427  0.51492  0.65771  Biso   1.000  C
  C102     1.0000 0.72438  0.14285  0.48517  Biso   1.000  C
  C103     1.0000 0.27557  0.51484  0.85714  Biso   1.000  C
  C104     1.0000 0.27563  0.14283  0.65773  Biso   1.000  C
  C105     1.0000 0.27575  0.34230  0.48509  Biso   1.000  C
  C106     1.0000 0.27557  0.48516  0.14286  Biso   1.000  C
  C107     1.0000 0.27563  0.85717  0.34227  Biso   1.000  C
  C108     1.0000 0.27575  0.65770  0.51491  Biso   1.000  C
  C109     1.0000 0.27563  0.34227  0.85719  Biso   1.000  C
  C110     1.0000 0.27573  0.51492  0.65771  Biso   1.000  C
  C111     1.0000 0.27562  0.14285  0.48517  Biso   1.000  C
  C112     1.0000 0.27563  0.65773  0.14281  Biso   1.000  C
  C113     1.0000 0.27573  0.48508  0.34229  Biso   1.000  C
  C114     1.0000 0.27562  0.85715  0.51483  Biso   1.000  C
  C115     1.0000 0.72443  0.48516  0.14286  Biso   1.000  C
  C116     1.0000 0.72437  0.85717  0.34227  Biso   1.000  C
  C117     1.0000 0.72425  0.65770  0.51491  Biso   1.000  C
  C118     1.0000 0.72443  0.51484  0.85714  Biso   1.000  C
  C119     1.0000 0.72437  0.14283  0.65773  Biso   1.000  C
  C120     1.0000 0.72425  0.34230  0.48509  Biso   1.000  C
  C121     1.0000 0.78216  0.64323  0.15166  Biso   1.000  C
  C122     1.0000 0.78190  0.50849  0.35683  Biso   1.000  C
  C123     1.0000 0.78216  0.84830  0.49148  Biso   1.000  C
  C124     1.0000 0.78216  0.35677  0.84834  Biso   1.000  C
  C125     1.0000 0.78190  0.49151  0.64317  Biso   1.000  C
  C126     1.0000 0.78216  0.15170  0.50852  Biso   1.000  C
  C127     1.0000 0.21779  0.49149  0.84830  Biso   1.000  C
  C128     1.0000 0.21785  0.15168  0.64322  Biso   1.000  C
  C129     1.0000 0.21811  0.35684  0.50850  Biso   1.000  C
  C130     1.0000 0.21779  0.50851  0.15170  Biso   1.000  C
  C131     1.0000 0.21785  0.84832  0.35678  Biso   1.000  C
  C132     1.0000 0.21811  0.64316  0.49150  Biso   1.000  C
  C133     1.0000 0.21784  0.35677  0.84834  Biso   1.000  C
  C134     1.0000 0.21810  0.49151  0.64317  Biso   1.000  C
  C135     1.0000 0.21784  0.15170  0.50852  Biso   1.000  C
  C136     1.0000 0.21784  0.64323  0.15166  Biso   1.000  C
  C137     1.0000 0.21810  0.50849  0.35683  Biso   1.000  C
  C138     1.0000 0.21784  0.84830  0.49148  Biso   1.000  C
  C139     1.0000 0.78221  0.50851  0.15170  Biso   1.000  C
  C140     1.0000 0.78215  0.84832  0.35678  Biso   1.000  C
  C141     1.0000 0.78189  0.64316  0.49150  Biso   1.000  C
  C142     1.0000 0.78221  0.49149  0.84830  Biso   1.000  C
  C143     1.0000 0.78215  0.15168  0.64322  Biso   1.000  C
  C144     1.0000 0.78189  0.35684  0.50850  Biso   1.000  C
  C145     1.0000 0.82799  0.61906  0.12881  Biso   1.000  C
  C146     1.0000 0.82780  0.50983  0.38100  Biso   1.000  C
  C147     1.0000 0.82803  0.87116  0.49017  Biso   1.000  C
  C148     1.0000 0.82799  0.38094  0.87119  Biso   1.000  C
  C149     1.0000 0.82780  0.49017  0.61900  Biso   1.000  C
  C150     1.0000 0.82803  0.12884  0.50983  Biso   1.000  C
  C151     1.0000 0.17195  0.49018  0.87116  Biso   1.000  C
  C152     1.0000 0.17201  0.12883  0.61905  Biso   1.000  C
  C153     1.0000 0.17221  0.38100  0.50983  Biso   1.000  C
  C154     1.0000 0.17195  0.50982  0.12884  Biso   1.000  C
  C155     1.0000 0.17201  0.87117  0.38095  Biso   1.000  C
  C156     1.0000 0.17221  0.61900  0.49017  Biso   1.000  C
  C157     1.0000 0.17201  0.38094  0.87119  Biso   1.000  C
  C158     1.0000 0.17220  0.49017  0.61900  Biso   1.000  C
  C159     1.0000 0.17197  0.12884  0.50983  Biso   1.000  C
  C160     1.0000 0.17201  0.61906  0.12881  Biso   1.000  C
  C161     1.0000 0.17220  0.50983  0.38100  Biso   1.000  C
  C162     1.0000 0.17197  0.87116  0.49017  Biso   1.000  C
  C163     1.0000 0.82805  0.50982  0.12884  Biso   1.000  C
  C164     1.0000 0.82799  0.87117  0.38095  Biso   1.000  C
  C165     1.0000 0.82779  0.61900  0.49017  Biso   1.000  C
  C166     1.0000 0.82805  0.49018  0.87116  Biso   1.000  C
  C167     1.0000 0.82799  0.12883  0.61905  Biso   1.000  C
  C168     1.0000 0.82779  0.38100  0.50983  Biso   1.000  C
  C169     1.0000 0.67579  0.68330  0.16732  Biso   1.000  C
  C170     1.0000 0.67568  0.48400  0.31671  Biso   1.000  C
  C171     1.0000 0.67580  0.83265  0.51591  Biso   1.000  C
  C172     1.0000 0.67579  0.31670  0.83268  Biso   1.000  C
  C173     1.0000 0.67568  0.51600  0.68329  Biso   1.000  C
  C174     1.0000 0.67580  0.16735  0.48409  Biso   1.000  C
  C175     1.0000 0.32416  0.51592  0.83264  Biso   1.000  C
  C176     1.0000 0.32420  0.16734  0.68330  Biso   1.000  C
  C177     1.0000 0.32435  0.31673  0.48401  Biso   1.000  C
  C178     1.0000 0.32416  0.48408  0.16736  Biso   1.000  C
  C179     1.0000 0.32420  0.83266  0.31670  Biso   1.000  C
  C180     1.0000 0.32435  0.68327  0.51599  Biso   1.000  C
  C181     1.0000 0.32421  0.31670  0.83268  Biso   1.000  C
  C182     1.0000 0.32432  0.51600  0.68329  Biso   1.000  C
  C183     1.0000 0.32420  0.16735  0.48409  Biso   1.000  C
  C184     1.0000 0.32421  0.68330  0.16732  Biso   1.000  C
  C185     1.0000 0.32432  0.48400  0.31671  Biso   1.000  C
  C186     1.0000 0.32420  0.83265  0.51591  Biso   1.000  C
  C187     1.0000 0.67584  0.48408  0.16736  Biso   1.000  C
  C188     1.0000 0.67580  0.83266  0.31670  Biso   1.000  C
  C189     1.0000 0.67565  0.68327  0.51599  Biso   1.000  C
  C190     1.0000 0.67584  0.51592  0.83264  Biso   1.000  C
  C191     1.0000 0.67580  0.16734  0.68330  Biso   1.000  C
  C192     1.0000 0.67565  0.31673  0.48401  Biso   1.000  C
  C193     1.0000 0.65108  0.70921  0.16408  Biso   1.000  C
  C194     1.0000 0.65111  0.45485  0.29079  Biso   1.000  C
  C195     1.0000 0.65100  0.83594  0.54506  Biso   1.000  C
  C196     1.0000 0.65108  0.29079  0.83592  Biso   1.000  C
  C197     1.0000 0.65111  0.54515  0.70921  Biso   1.000  C
  C198     1.0000 0.65100  0.16406  0.45494  Biso   1.000  C
  C199     1.0000 0.34899  0.54507  0.83593  Biso   1.000  C
  C200     1.0000 0.34889  0.16410  0.70921  Biso   1.000  C
  C201     1.0000 0.34892  0.29081  0.45486  Biso   1.000  C
  C202     1.0000 0.34899  0.45493  0.16407  Biso   1.000  C
  C203     1.0000 0.34889  0.83590  0.29079  Biso   1.000  C
  C204     1.0000 0.34892  0.70919  0.54514  Biso   1.000  C
  C205     1.0000 0.34892  0.29079  0.83592  Biso   1.000  C
  C206     1.0000 0.34889  0.54515  0.70921  Biso   1.000  C
  C207     1.0000 0.34900  0.16406  0.45494  Biso   1.000  C
  C208     1.0000 0.34892  0.70921  0.16408  Biso   1.000  C
  C209     1.0000 0.34889  0.45485  0.29079  Biso   1.000  C
  C210     1.0000 0.34900  0.83594  0.54506  Biso   1.000  C
  C211     1.0000 0.65101  0.45493  0.16407  Biso   1.000  C
  C212     1.0000 0.65111  0.83590  0.29079  Biso   1.000  C
  C213     1.0000 0.65108  0.70919  0.54514  Biso   1.000  C
  C214     1.0000 0.65101  0.54507  0.83593  Biso   1.000  C
  C215     1.0000 0.65111  0.16410  0.70921  Biso   1.000  C
  C216     1.0000 0.65108  0.29081  0.45486  Biso   1.000  C
  C217     1.0000 0.60642  0.73355  0.18761  Biso   1.000  C
  C218     1.0000 0.60651  0.45402  0.26643  Biso   1.000  C
  C219     1.0000 0.60634  0.81243  0.54592  Biso   1.000  C
  C220     1.0000 0.60642  0.26645  0.81239  Biso   1.000  C
  C221     1.0000 0.60651  0.54598  0.73357  Biso   1.000  C
  C222     1.0000 0.60634  0.18757  0.45408  Biso   1.000  C
  C223     1.0000 0.39367  0.54592  0.81243  Biso   1.000  C
  C224     1.0000 0.39354  0.18763  0.73355  Biso   1.000  C
  C225     1.0000 0.39351  0.26644  0.45403  Biso   1.000  C
  C226     1.0000 0.39367  0.45408  0.18757  Biso   1.000  C
  C227     1.0000 0.39354  0.81237  0.26645  Biso   1.000  C
  C228     1.0000 0.39351  0.73356  0.54597  Biso   1.000  C
  C229     1.0000 0.39358  0.26645  0.81239  Biso   1.000  C
  C230     1.0000 0.39349  0.54598  0.73357  Biso   1.000  C
  C231     1.0000 0.39366  0.18757  0.45408  Biso   1.000  C
  C232     1.0000 0.39358  0.73355  0.18761  Biso   1.000  C
  C233     1.0000 0.39349  0.45402  0.26643  Biso   1.000  C
  C234     1.0000 0.39366  0.81243  0.54592  Biso   1.000  C
  C235     1.0000 0.60633  0.45408  0.18757  Biso   1.000  C
  C236     1.0000 0.60646  0.81237  0.26645  Biso   1.000  C
  C237     1.0000 0.60649  0.73356  0.54597  Biso   1.000  C
  C238     1.0000 0.60633  0.54592  0.81243  Biso   1.000  C
  C239     1.0000 0.60646  0.18763  0.73355  Biso   1.000  C
  C240     1.0000 0.60649  0.26644  0.45403  Biso   1.000  C
  C241     1.0000 0.58453  0.73271  0.21507  Biso   1.000  C
  C242     1.0000 0.58451  0.48230  0.26726  Biso   1.000  C
  C243     1.0000 0.58454  0.78493  0.51766  Biso   1.000  C
  C244     1.0000 0.58453  0.26729  0.78493  Biso   1.000  C
  C245     1.0000 0.58451  0.51770  0.73274  Biso   1.000  C
  C246     1.0000 0.58454  0.21507  0.48234  Biso   1.000  C
  C247     1.0000 0.41546  0.51765  0.78493  Biso   1.000  C
  C248     1.0000 0.41546  0.21509  0.73272  Biso   1.000  C
  C249     1.0000 0.41550  0.26726  0.48231  Biso   1.000  C
  C250     1.0000 0.41546  0.48235  0.21507  Biso   1.000  C
  C251     1.0000 0.41546  0.78491  0.26728  Biso   1.000  C
  C252     1.0000 0.41550  0.73274  0.51769  Biso   1.000  C
  C253     1.0000 0.41547  0.26729  0.78493  Biso   1.000  C
  C254     1.0000 0.41549  0.51770  0.73274  Biso   1.000  C
  C255     1.0000 0.41546  0.21507  0.48234  Biso   1.000  C
  C256     1.0000 0.41547  0.73271  0.21507  Biso   1.000  C
  C257     1.0000 0.41549  0.48230  0.26726  Biso   1.000  C
  C258     1.0000 0.41546  0.78493  0.51766  Biso   1.000  C
  C259     1.0000 0.58454  0.48235  0.21507  Biso   1.000  C
  C260     1.0000 0.58454  0.78491  0.26728  Biso   1.000  C
  C261     1.0000 0.58450  0.73274  0.51769  Biso   1.000  C
  C262     1.0000 0.58454  0.51765  0.78493  Biso   1.000  C
  C263     1.0000 0.58454  0.21509  0.73272  Biso   1.000  C
  C264     1.0000 0.58450  0.26726  0.48231  Biso   1.000  C
  C265     1.0000 0.60857  0.70679  0.21829  Biso   1.000  C
  C266     1.0000 0.60839  0.51145  0.29319  Biso   1.000  C
  C267     1.0000 0.60867  0.78166  0.48850  Biso   1.000  C
  C268     1.0000 0.60857  0.29321  0.78171  Biso   1.000  C
  C269     1.0000 0.60839  0.48855  0.70681  Biso   1.000  C
  C270     1.0000 0.60867  0.21834  0.51150  Biso   1.000  C
  C271     1.0000 0.39128  0.48850  0.78165  Biso   1.000  C
  C272     1.0000 0.39143  0.21831  0.70681  Biso   1.000  C
  C273     1.0000 0.39163  0.29320  0.51145  Biso   1.000  C
  C274     1.0000 0.39128  0.51150  0.21835  Biso   1.000  C
  C275     1.0000 0.39143  0.78169  0.29319  Biso   1.000  C
  C276     1.0000 0.39163  0.70680  0.48855  Biso   1.000  C
  C277     1.0000 0.39143  0.29321  0.78171  Biso   1.000  C
  C278     1.0000 0.39161  0.48855  0.70681  Biso   1.000  C
  C279     1.0000 0.39133  0.21834  0.51150  Biso   1.000  C
  C280     1.0000 0.39143  0.70679  0.21829  Biso   1.000  C
  C281     1.0000 0.39161  0.51145  0.29319  Biso   1.000  C
  C282     1.0000 0.39133  0.78166  0.48850  Biso   1.000  C
  C283     1.0000 0.60872  0.51150  0.21835  Biso   1.000  C
  C284     1.0000 0.60857  0.78169  0.29319  Biso   1.000  C
  C285     1.0000 0.60837  0.70680  0.48855  Biso   1.000  C
  C286     1.0000 0.60872  0.48850  0.78165  Biso   1.000  C
  C287     1.0000 0.60857  0.21831  0.70681  Biso   1.000  C
  C288     1.0000 0.60837  0.29320  0.51145  Biso   1.000  C
  C289     1.0000 0.65332  0.68251  0.19484  Biso   1.000  C
  C290     1.0000 0.65309  0.51229  0.31750  Biso   1.000  C
  C291     1.0000 0.65340  0.80510  0.48764  Biso   1.000  C
  C292     1.0000 0.65332  0.31749  0.80516  Biso   1.000  C
  C293     1.0000 0.65309  0.48771  0.68250  Biso   1.000  C
  C294     1.0000 0.65340  0.19490  0.51236  Biso   1.000  C
  C295     1.0000 0.34654  0.48764  0.80509  Biso   1.000  C
  C296     1.0000 0.34669  0.19486  0.68252  Biso   1.000  C
  C297     1.0000 0.34694  0.31751  0.51230  Biso   1.000  C
  C298     1.0000 0.34654  0.51236  0.19491  Biso   1.000  C
  C299     1.0000 0.34669  0.80514  0.31748  Biso   1.000  C
  C300     1.0000 0.34694  0.68249  0.48770  Biso   1.000  C
  C301     1.0000 0.34668  0.31749  0.80516  Biso   1.000  C
  C302     1.0000 0.34691  0.48771  0.68250  Biso   1.000  C
  C303     1.0000 0.34660  0.19490  0.51236  Biso   1.000  C
  C304     1.0000 0.34668  0.68251  0.19484  Biso   1.000  C
  C305     1.0000 0.34691  0.51229  0.31750  Biso   1.000  C
  C306     1.0000 0.34660  0.80510  0.48764  Biso   1.000  C
  C307     1.0000 0.65346  0.51236  0.19491  Biso   1.000  C
  C308     1.0000 0.65331  0.80514  0.31748  Biso   1.000  C
  C309     1.0000 0.65306  0.68249  0.48770  Biso   1.000  C
  C310     1.0000 0.65346  0.48764  0.80509  Biso   1.000  C
  C311     1.0000 0.65331  0.19486  0.68252  Biso   1.000  C
  C312     1.0000 0.65306  0.31751  0.51230  Biso   1.000  C
  C313     1.0000 0.53881  0.75912  0.24087  Biso   1.000  C
  C314     1.0000 0.53881  0.48170  0.24085  Biso   1.000  C
  C315     1.0000 0.53881  0.75915  0.51830  Biso   1.000  C
  C316     1.0000 0.53881  0.24088  0.75913  Biso   1.000  C
  C317     1.0000 0.53881  0.51830  0.75915  Biso   1.000  C
  C318     1.0000 0.53881  0.24085  0.48170  Biso   1.000  C
  C319     1.0000 0.46119  0.51830  0.75915  Biso   1.000  C
  C320     1.0000 0.46119  0.24088  0.75913  Biso   1.000  C
  C321     1.0000 0.46119  0.24085  0.48170  Biso   1.000  C
  C322     1.0000 0.46119  0.48170  0.24085  Biso   1.000  C
  C323     1.0000 0.46118  0.75912  0.24087  Biso   1.000  C
  C324     1.0000 0.46119  0.75915  0.51830  Biso   1.000  C
  O1       1.0000 0.89626  0.51460  0.02917  Biso   1.000  O
  O2       1.0000 0.89621  0.51459  0.48540  Biso   1.000  O
  O3       1.0000 0.89628  0.97083  0.48541  Biso   1.000  O
  O4       1.0000 0.89626  0.48540  0.97083  Biso   1.000  O
  O5       1.0000 0.89621  0.48541  0.51460  Biso   1.000  O
  O6       1.0000 0.89628  0.02917  0.51459  Biso   1.000  O
  O7       1.0000 0.10374  0.48540  0.97083  Biso   1.000  O
  O8       1.0000 0.10372  0.02917  0.51459  Biso   1.000  O
  O9       1.0000 0.10379  0.48541  0.51460  Biso   1.000  O
  O10      1.0000 0.10374  0.51460  0.02917  Biso   1.000  O
  O11      1.0000 0.10372  0.97083  0.48541  Biso   1.000  O
  O12      1.0000 0.10379  0.51459  0.48540  Biso   1.000  O
  O13      1.0000 0.00000  0.55216  0.02924  Biso   1.000  O
  O14      1.0000 0.00000  0.47714  0.44789  Biso   1.000  O
  O15      1.0000 1.00000  0.97074  0.52287  Biso   1.000  O
  O16      1.0000 0.00000  0.44784  0.97076  Biso   1.000  O
  O17      1.0000 0.00000  0.52286  0.55211  Biso   1.000  O
  O18      1.0000 1.00000  0.02926  0.47713  Biso   1.000  O
  O19      1.0000 0.00000  0.52286  0.97075  Biso   1.000  O
  O20      1.0000 1.00000  0.02925  0.55217  Biso   1.000  O
  O21      1.0000 0.00000  0.44789  0.47715  Biso   1.000  O
  O22      1.0000 0.00000  0.47714  0.02925  Biso   1.000  O
  O23      1.0000 1.00000  0.97075  0.44783  Biso   1.000  O
  O24      1.0000 0.00000  0.55211  0.52285  Biso   1.000  O
  O25      1.0000 0.91684  0.57061  0.08222  Biso   1.000  O
  O26      1.0000 0.91685  0.51163  0.42939  Biso   1.000  O
  O27      1.0000 0.91689  0.91777  0.48836  Biso   1.000  O
  O28      1.0000 0.91684  0.42939  0.91778  Biso   1.000  O
  O29      1.0000 0.91685  0.48837  0.57061  Biso   1.000  O
  O30      1.0000 0.91689  0.08223  0.51164  Biso   1.000  O
  O31      1.0000 0.08311  0.48835  0.91777  Biso   1.000  O
  O32      1.0000 0.08315  0.08223  0.57061  Biso   1.000  O
  O33      1.0000 0.08316  0.42940  0.51164  Biso   1.000  O
  O34      1.0000 0.08311  0.51165  0.08223  Biso   1.000  O
  O35      1.0000 0.08315  0.91777  0.42939  Biso   1.000  O
  O36      1.0000 0.08316  0.57060  0.48836  Biso   1.000  O
  O37      1.0000 0.08316  0.42939  0.91778  Biso   1.000  O
  O38      1.0000 0.08315  0.48837  0.57061  Biso   1.000  O
  O39      1.0000 0.08311  0.08223  0.51164  Biso   1.000  O
  O40      1.0000 0.08316  0.57061  0.08222  Biso   1.000  O
  O41      1.0000 0.08315  0.51163  0.42939  Biso   1.000  O
  O42      1.0000 0.08311  0.91777  0.48836  Biso   1.000  O
  O43      1.0000 0.91689  0.51165  0.08223  Biso   1.000  O
  O44      1.0000 0.91685  0.91777  0.42939  Biso   1.000  O
  O45      1.0000 0.91684  0.57060  0.48836  Biso   1.000  O
  O46      1.0000 0.91689  0.48835  0.91777  Biso   1.000  O
  O47      1.0000 0.91685  0.08223  0.57061  Biso   1.000  O
  O48      1.0000 0.91684  0.42940  0.51164  Biso   1.000  O
  O49      1.0000 0.85277  0.57357  0.04234  Biso   1.000  O
  O50      1.0000 0.85280  0.46879  0.42645  Biso   1.000  O
  O51      1.0000 0.85285  0.95764  0.53121  Biso   1.000  O
  O52      1.0000 0.85277  0.42643  0.95766  Biso   1.000  O
  O53      1.0000 0.85280  0.53121  0.57355  Biso   1.000  O
  O54      1.0000 0.85285  0.04236  0.46879  Biso   1.000  O
  O55      1.0000 0.14717  0.53120  0.95764  Biso   1.000  O
  O56      1.0000 0.14721  0.04234  0.57358  Biso   1.000  O
  O57      1.0000 0.14719  0.42645  0.46880  Biso   1.000  O
  O58      1.0000 0.14717  0.46880  0.04236  Biso   1.000  O
  O59      1.0000 0.14721  0.95766  0.42642  Biso   1.000  O
  O60      1.0000 0.14719  0.57355  0.53120  Biso   1.000  O
  O61      1.0000 0.14723  0.42643  0.95766  Biso   1.000  O
  O62      1.0000 0.14720  0.53121  0.57355  Biso   1.000  O
  O63      1.0000 0.14715  0.04236  0.46879  Biso   1.000  O
  O64      1.0000 0.14723  0.57357  0.04234  Biso   1.000  O
  O65      1.0000 0.14720  0.46879  0.42645  Biso   1.000  O
  O66      1.0000 0.14715  0.95764  0.53121  Biso   1.000  O
  O67      1.0000 0.85283  0.46880  0.04236  Biso   1.000  O
  O68      1.0000 0.85279  0.95766  0.42642  Biso   1.000  O
  O69      1.0000 0.85281  0.57355  0.53120  Biso   1.000  O
  O70      1.0000 0.85283  0.53120  0.95764  Biso   1.000  O
  O71      1.0000 0.85279  0.04234  0.57358  Biso   1.000  O
  O72      1.0000 0.85281  0.42645  0.46880  Biso   1.000  O
