data_image0
_cell_length_a       27.7112
_cell_length_b       27.7117
_cell_length_c       27.7117
_cell_angle_alpha    60.0104
_cell_angle_beta     60.0141
_cell_angle_gamma    60.0141

_symmetry_space_group_name_H-M    "P 1"
_symmetry_int_tables_number       1

loop_
  _symmetry_equiv_pos_as_xyz
  'x, y, z'

loop_
  _atom_site_label
  _atom_site_occupancy
  _atom_site_fract_x
  _atom_site_fract_y
  _atom_site_fract_z
  _atom_site_thermal_displace_type
  _atom_site_B_iso_or_equiv
  _atom_site_type_symbol
  C1       1.0000 0.66865  0.86060  0.02026  Biso   1.000  C
  C2       1.0000 0.45048  0.02022  0.86061  Biso   1.000  C
  C3       1.0000 0.02027  0.45054  0.66861  Biso   1.000  C
  C4       1.0000 0.86057  0.66862  0.45056  Biso   1.000  C
  C5       1.0000 0.86060  0.02026  0.66865  Biso   1.000  C
  C6       1.0000 0.02022  0.86061  0.45047  Biso   1.000  C
  C7       1.0000 0.45053  0.66861  0.02027  Biso   1.000  C
  C8       1.0000 0.66862  0.45056  0.86057  Biso   1.000  C
  C9       1.0000 0.02025  0.66865  0.86061  Biso   1.000  C
  C10      1.0000 0.86061  0.45047  0.02022  Biso   1.000  C
  C11      1.0000 0.66861  0.02027  0.45053  Biso   1.000  C
  C12      1.0000 0.45056  0.86057  0.66862  Biso   1.000  C
  C13      1.0000 0.54952  0.13939  0.97978  Biso   1.000  C
  C14      1.0000 0.33135  0.97974  0.13940  Biso   1.000  C
  C15      1.0000 0.13943  0.54944  0.33138  Biso   1.000  C
  C16      1.0000 0.97973  0.33139  0.54946  Biso   1.000  C
  C17      1.0000 0.54947  0.97973  0.33139  Biso   1.000  C
  C18      1.0000 0.33138  0.13943  0.54944  Biso   1.000  C
  C19      1.0000 0.13940  0.33134  0.97974  Biso   1.000  C
  C20      1.0000 0.97978  0.54953  0.13939  Biso   1.000  C
  C21      1.0000 0.54944  0.33138  0.13943  Biso   1.000  C
  C22      1.0000 0.33139  0.54947  0.97973  Biso   1.000  C
  C23      1.0000 0.13939  0.97978  0.54953  Biso   1.000  C
  C24      1.0000 0.97975  0.13939  0.33135  Biso   1.000  C
  C25      1.0000 0.33135  0.13940  0.97974  Biso   1.000  C
  C26      1.0000 0.54952  0.97978  0.13939  Biso   1.000  C
  C27      1.0000 0.97973  0.54946  0.33139  Biso   1.000  C
  C28      1.0000 0.13943  0.33138  0.54944  Biso   1.000  C
  C29      1.0000 0.13940  0.97974  0.33135  Biso   1.000  C
  C30      1.0000 0.97978  0.13939  0.54953  Biso   1.000  C
  C31      1.0000 0.54947  0.33139  0.97973  Biso   1.000  C
  C32      1.0000 0.33138  0.54944  0.13943  Biso   1.000  C
  C33      1.0000 0.97975  0.33135  0.13939  Biso   1.000  C
  C34      1.0000 0.13939  0.54953  0.97978  Biso   1.000  C
  C35      1.0000 0.33139  0.97973  0.54947  Biso   1.000  C
  C36      1.0000 0.54944  0.13943  0.33138  Biso   1.000  C
  C37      1.0000 0.45048  0.86061  0.02022  Biso   1.000  C
  C38      1.0000 0.66865  0.02026  0.86060  Biso   1.000  C
  C39      1.0000 0.86057  0.45056  0.66862  Biso   1.000  C
  C40      1.0000 0.02027  0.66861  0.45054  Biso   1.000  C
  C41      1.0000 0.45053  0.02027  0.66861  Biso   1.000  C
  C42      1.0000 0.66862  0.86057  0.45056  Biso   1.000  C
  C43      1.0000 0.86060  0.66866  0.02026  Biso   1.000  C
  C44      1.0000 0.02022  0.45047  0.86061  Biso   1.000  C
  C45      1.0000 0.45056  0.66862  0.86057  Biso   1.000  C
  C46      1.0000 0.66861  0.45053  0.02027  Biso   1.000  C
  C47      1.0000 0.86061  0.02022  0.45047  Biso   1.000  C
  C48      1.0000 0.02025  0.86061  0.66865  Biso   1.000  C
  C49      1.0000 0.72746  0.81636  0.02029  Biso   1.000  C
  C50      1.0000 0.43589  0.02027  0.81635  Biso   1.000  C
  C51      1.0000 0.02031  0.43594  0.72740  Biso   1.000  C
  C52      1.0000 0.81630  0.72740  0.43599  Biso   1.000  C
  C53      1.0000 0.81636  0.02030  0.72746  Biso   1.000  C
  C54      1.0000 0.02028  0.81635  0.43588  Biso   1.000  C
  C55      1.0000 0.43593  0.72741  0.02031  Biso   1.000  C
  C56      1.0000 0.72741  0.43598  0.81631  Biso   1.000  C
  C57      1.0000 0.02029  0.72745  0.81636  Biso   1.000  C
  C58      1.0000 0.81635  0.43588  0.02027  Biso   1.000  C
  C59      1.0000 0.72741  0.02031  0.43593  Biso   1.000  C
  C60      1.0000 0.43599  0.81631  0.72741  Biso   1.000  C
  C61      1.0000 0.56411  0.18365  0.97973  Biso   1.000  C
  C62      1.0000 0.27254  0.97971  0.18364  Biso   1.000  C
  C63      1.0000 0.18370  0.56401  0.27260  Biso   1.000  C
  C64      1.0000 0.97969  0.27260  0.56406  Biso   1.000  C
  C65      1.0000 0.56407  0.97969  0.27259  Biso   1.000  C
  C66      1.0000 0.27259  0.18369  0.56402  Biso   1.000  C
  C67      1.0000 0.18364  0.27254  0.97970  Biso   1.000  C
  C68      1.0000 0.97972  0.56412  0.18365  Biso   1.000  C
  C69      1.0000 0.56401  0.27259  0.18369  Biso   1.000  C
  C70      1.0000 0.27259  0.56407  0.97969  Biso   1.000  C
  C71      1.0000 0.18365  0.97973  0.56412  Biso   1.000  C
  C72      1.0000 0.97971  0.18364  0.27255  Biso   1.000  C
  C73      1.0000 0.27254  0.18364  0.97971  Biso   1.000  C
  C74      1.0000 0.56411  0.97973  0.18365  Biso   1.000  C
  C75      1.0000 0.97969  0.56406  0.27260  Biso   1.000  C
  C76      1.0000 0.18370  0.27260  0.56401  Biso   1.000  C
  C77      1.0000 0.18364  0.97970  0.27254  Biso   1.000  C
  C78      1.0000 0.97972  0.18365  0.56412  Biso   1.000  C
  C79      1.0000 0.56407  0.27259  0.97969  Biso   1.000  C
  C80      1.0000 0.27259  0.56402  0.18369  Biso   1.000  C
  C81      1.0000 0.97971  0.27255  0.18364  Biso   1.000  C
  C82      1.0000 0.18365  0.56412  0.97973  Biso   1.000  C
  C83      1.0000 0.27259  0.97969  0.56407  Biso   1.000  C
  C84      1.0000 0.56401  0.18369  0.27259  Biso   1.000  C
  C85      1.0000 0.43589  0.81635  0.02027  Biso   1.000  C
  C86      1.0000 0.72746  0.02029  0.81636  Biso   1.000  C
  C87      1.0000 0.81630  0.43599  0.72740  Biso   1.000  C
  C88      1.0000 0.02031  0.72740  0.43594  Biso   1.000  C
  C89      1.0000 0.43593  0.02031  0.72741  Biso   1.000  C
  C90      1.0000 0.72741  0.81631  0.43598  Biso   1.000  C
  C91      1.0000 0.81636  0.72746  0.02030  Biso   1.000  C
  C92      1.0000 0.02028  0.43588  0.81635  Biso   1.000  C
  C93      1.0000 0.43599  0.72741  0.81631  Biso   1.000  C
  C94      1.0000 0.72741  0.43593  0.02031  Biso   1.000  C
  C95      1.0000 0.81635  0.02027  0.43588  Biso   1.000  C
  C96      1.0000 0.02029  0.81636  0.72745  Biso   1.000  C
  C97      1.0000 0.77530  0.82598  0.01407  Biso   1.000  C
  C98      1.0000 0.38465  0.01406  0.82592  Biso   1.000  C
  C99      1.0000 0.01408  0.38468  0.77521  Biso   1.000  C
  C100     1.0000 0.82592  0.77524  0.38475  Biso   1.000  C
  C101     1.0000 0.82598  0.01408  0.77531  Biso   1.000  C
  C102     1.0000 0.01407  0.82592  0.38464  Biso   1.000  C
  C103     1.0000 0.38467  0.77521  0.01409  Biso   1.000  C
  C104     1.0000 0.77525  0.38474  0.82592  Biso   1.000  C
  C105     1.0000 0.01408  0.77530  0.82598  Biso   1.000  C
  C106     1.0000 0.82592  0.38464  0.01407  Biso   1.000  C
  C107     1.0000 0.77521  0.01408  0.38468  Biso   1.000  C
  C108     1.0000 0.38475  0.82592  0.77524  Biso   1.000  C
  C109     1.0000 0.61535  0.17408  0.98594  Biso   1.000  C
  C110     1.0000 0.22470  0.98593  0.17402  Biso   1.000  C
  C111     1.0000 0.17408  0.61525  0.22476  Biso   1.000  C
  C112     1.0000 0.98592  0.22479  0.61532  Biso   1.000  C
  C113     1.0000 0.61533  0.98591  0.22479  Biso   1.000  C
  C114     1.0000 0.22475  0.17408  0.61526  Biso   1.000  C
  C115     1.0000 0.17402  0.22469  0.98592  Biso   1.000  C
  C116     1.0000 0.98593  0.61536  0.17408  Biso   1.000  C
  C117     1.0000 0.61525  0.22476  0.17408  Biso   1.000  C
  C118     1.0000 0.22479  0.61532  0.98592  Biso   1.000  C
  C119     1.0000 0.17408  0.98593  0.61536  Biso   1.000  C
  C120     1.0000 0.98592  0.17402  0.22470  Biso   1.000  C
  C121     1.0000 0.22470  0.17402  0.98593  Biso   1.000  C
  C122     1.0000 0.61535  0.98594  0.17408  Biso   1.000  C
  C123     1.0000 0.98592  0.61532  0.22479  Biso   1.000  C
  C124     1.0000 0.17408  0.22476  0.61525  Biso   1.000  C
  C125     1.0000 0.17402  0.98592  0.22469  Biso   1.000  C
  C126     1.0000 0.98593  0.17408  0.61536  Biso   1.000  C
  C127     1.0000 0.61533  0.22479  0.98591  Biso   1.000  C
  C128     1.0000 0.22475  0.61526  0.17408  Biso   1.000  C
  C129     1.0000 0.98592  0.22470  0.17402  Biso   1.000  C
  C130     1.0000 0.17408  0.61536  0.98593  Biso   1.000  C
  C131     1.0000 0.22479  0.98592  0.61532  Biso   1.000  C
  C132     1.0000 0.61525  0.17408  0.22476  Biso   1.000  C
  C133     1.0000 0.38465  0.82592  0.01406  Biso   1.000  C
  C134     1.0000 0.77530  0.01407  0.82598  Biso   1.000  C
  C135     1.0000 0.82592  0.38475  0.77524  Biso   1.000  C
  C136     1.0000 0.01408  0.77521  0.38468  Biso   1.000  C
  C137     1.0000 0.38467  0.01409  0.77521  Biso   1.000  C
  C138     1.0000 0.77525  0.82592  0.38474  Biso   1.000  C
  C139     1.0000 0.82598  0.77531  0.01408  Biso   1.000  C
  C140     1.0000 0.01407  0.38464  0.82592  Biso   1.000  C
  C141     1.0000 0.38475  0.77524  0.82592  Biso   1.000  C
  C142     1.0000 0.77521  0.38468  0.01408  Biso   1.000  C
  C143     1.0000 0.82592  0.01407  0.38464  Biso   1.000  C
  C144     1.0000 0.01408  0.82598  0.77530  Biso   1.000  C
  H1       1.0000 0.77206  0.86868  0.00948  Biso   1.000  H
  H2       1.0000 0.34978  0.00946  0.86860  Biso   1.000  H
  H3       1.0000 0.00949  0.34987  0.77189  Biso   1.000  H
  H4       1.0000 0.86862  0.77197  0.34992  Biso   1.000  H
  H5       1.0000 0.86867  0.00950  0.77206  Biso   1.000  H
  H6       1.0000 0.00948  0.86859  0.34976  Biso   1.000  H
  H7       1.0000 0.34985  0.77190  0.00951  Biso   1.000  H
  H8       1.0000 0.77199  0.34990  0.86861  Biso   1.000  H
  H9       1.0000 0.00949  0.77205  0.86867  Biso   1.000  H
  H10      1.0000 0.86859  0.34977  0.00947  Biso   1.000  H
  H11      1.0000 0.77189  0.00949  0.34986  Biso   1.000  H
  H12      1.0000 0.34991  0.86861  0.77198  Biso   1.000  H
  H13      1.0000 0.65022  0.13140  0.99054  Biso   1.000  H
  H14      1.0000 0.22794  0.99052  0.13132  Biso   1.000  H
  H15      1.0000 0.13138  0.65008  0.22803  Biso   1.000  H
  H16      1.0000 0.99051  0.22811  0.65013  Biso   1.000  H
  H17      1.0000 0.65015  0.99049  0.22810  Biso   1.000  H
  H18      1.0000 0.22801  0.13139  0.65010  Biso   1.000  H
  H19      1.0000 0.13133  0.22794  0.99050  Biso   1.000  H
  H20      1.0000 0.99052  0.65024  0.13141  Biso   1.000  H
  H21      1.0000 0.65009  0.22802  0.13139  Biso   1.000  H
  H22      1.0000 0.22811  0.65014  0.99051  Biso   1.000  H
  H23      1.0000 0.13141  0.99053  0.65023  Biso   1.000  H
  H24      1.0000 0.99051  0.13133  0.22795  Biso   1.000  H
  H25      1.0000 0.22794  0.13132  0.99052  Biso   1.000  H
  H26      1.0000 0.65022  0.99054  0.13140  Biso   1.000  H
  H27      1.0000 0.99051  0.65013  0.22811  Biso   1.000  H
  H28      1.0000 0.13138  0.22803  0.65008  Biso   1.000  H
  H29      1.0000 0.13133  0.99050  0.22794  Biso   1.000  H
  H30      1.0000 0.99052  0.13141  0.65024  Biso   1.000  H
  H31      1.0000 0.65015  0.22810  0.99049  Biso   1.000  H
  H32      1.0000 0.22801  0.65010  0.13139  Biso   1.000  H
  H33      1.0000 0.99051  0.22795  0.13133  Biso   1.000  H
  H34      1.0000 0.13141  0.65023  0.99053  Biso   1.000  H
  H35      1.0000 0.22811  0.99051  0.65014  Biso   1.000  H
  H36      1.0000 0.65009  0.13139  0.22802  Biso   1.000  H
  H37      1.0000 0.34978  0.86860  0.00946  Biso   1.000  H
  H38      1.0000 0.77206  0.00948  0.86868  Biso   1.000  H
  H39      1.0000 0.86862  0.34992  0.77197  Biso   1.000  H
  H40      1.0000 0.00949  0.77189  0.34987  Biso   1.000  H
  H41      1.0000 0.34985  0.00951  0.77190  Biso   1.000  H
  H42      1.0000 0.77199  0.86861  0.34990  Biso   1.000  H
  H43      1.0000 0.86867  0.77206  0.00950  Biso   1.000  H
  H44      1.0000 0.00948  0.34976  0.86859  Biso   1.000  H
  H45      1.0000 0.34991  0.77198  0.86861  Biso   1.000  H
  H46      1.0000 0.77189  0.34986  0.00949  Biso   1.000  H
  H47      1.0000 0.86859  0.00947  0.34977  Biso   1.000  H
  H48      1.0000 0.00949  0.86867  0.77205  Biso   1.000  H
  O1       1.0000 0.66122  0.91213  0.01458  Biso   1.000  O
  O2       1.0000 0.41206  0.01454  0.91214  Biso   1.000  O
  O3       1.0000 0.01460  0.41211  0.66116  Biso   1.000  O
  O4       1.0000 0.91209  0.66120  0.41214  Biso   1.000  O
  O5       1.0000 0.91214  0.01458  0.66122  Biso   1.000  O
  O6       1.0000 0.01454  0.91214  0.41206  Biso   1.000  O
  O7       1.0000 0.41211  0.66117  0.01459  Biso   1.000  O
  O8       1.0000 0.66119  0.41214  0.91210  Biso   1.000  O
  O9       1.0000 0.01458  0.66122  0.91214  Biso   1.000  O
  O10      1.0000 0.91214  0.41206  0.01454  Biso   1.000  O
  O11      1.0000 0.66116  0.01460  0.41211  Biso   1.000  O
  O12      1.0000 0.41214  0.91210  0.66119  Biso   1.000  O
  O13      1.0000 0.58794  0.08786  0.98546  Biso   1.000  O
  O14      1.0000 0.33878  0.98542  0.08787  Biso   1.000  O
  O15      1.0000 0.08791  0.58786  0.33880  Biso   1.000  O
  O16      1.0000 0.98540  0.33884  0.58789  Biso   1.000  O
  O17      1.0000 0.58789  0.98541  0.33883  Biso   1.000  O
  O18      1.0000 0.33881  0.08790  0.58786  Biso   1.000  O
  O19      1.0000 0.08786  0.33878  0.98542  Biso   1.000  O
  O20      1.0000 0.98546  0.58794  0.08786  Biso   1.000  O
  O21      1.0000 0.58786  0.33881  0.08790  Biso   1.000  O
  O22      1.0000 0.33884  0.58789  0.98540  Biso   1.000  O
  O23      1.0000 0.08786  0.98546  0.58794  Biso   1.000  O
  O24      1.0000 0.98542  0.08786  0.33878  Biso   1.000  O
  O25      1.0000 0.33878  0.08787  0.98542  Biso   1.000  O
  O26      1.0000 0.58794  0.98546  0.08786  Biso   1.000  O
  O27      1.0000 0.98540  0.58789  0.33884  Biso   1.000  O
  O28      1.0000 0.08791  0.33880  0.58786  Biso   1.000  O
  O29      1.0000 0.08786  0.98542  0.33878  Biso   1.000  O
  O30      1.0000 0.98546  0.08786  0.58794  Biso   1.000  O
  O31      1.0000 0.58789  0.33883  0.98541  Biso   1.000  O
  O32      1.0000 0.33881  0.58786  0.08790  Biso   1.000  O
  O33      1.0000 0.98542  0.33878  0.08786  Biso   1.000  O
  O34      1.0000 0.08786  0.58794  0.98546  Biso   1.000  O
  O35      1.0000 0.33884  0.98540  0.58789  Biso   1.000  O
  O36      1.0000 0.58786  0.08790  0.33881  Biso   1.000  O
  O37      1.0000 0.41206  0.91214  0.01454  Biso   1.000  O
  O38      1.0000 0.66122  0.01458  0.91213  Biso   1.000  O
  O39      1.0000 0.91209  0.41214  0.66120  Biso   1.000  O
  O40      1.0000 0.01460  0.66116  0.41211  Biso   1.000  O
  O41      1.0000 0.41211  0.01459  0.66117  Biso   1.000  O
  O42      1.0000 0.66119  0.91210  0.41214  Biso   1.000  O
  O43      1.0000 0.91214  0.66122  0.01458  Biso   1.000  O
  O44      1.0000 0.01454  0.41206  0.91214  Biso   1.000  O
  O45      1.0000 0.41214  0.66119  0.91210  Biso   1.000  O
  O46      1.0000 0.66116  0.41211  0.01460  Biso   1.000  O
  O47      1.0000 0.91214  0.01454  0.41206  Biso   1.000  O
  O48      1.0000 0.01458  0.91214  0.66122  Biso   1.000  O
  O49      1.0000 0.59001  0.95407  0.95407  Biso   1.000  O
  O50      1.0000 0.50186  0.95406  0.95406  Biso   1.000  O
  O51      1.0000 0.95409  0.50186  0.58999  Biso   1.000  O
  O52      1.0000 0.95409  0.58999  0.50186  Biso   1.000  O
  O53      1.0000 0.95406  0.95406  0.59001  Biso   1.000  O
  O54      1.0000 0.95405  0.95405  0.50187  Biso   1.000  O
  O55      1.0000 0.50187  0.58999  0.95408  Biso   1.000  O
  O56      1.0000 0.59000  0.50187  0.95408  Biso   1.000  O
  O57      1.0000 0.95406  0.59001  0.95406  Biso   1.000  O
  O58      1.0000 0.95405  0.50187  0.95405  Biso   1.000  O
  O59      1.0000 0.59000  0.95408  0.50187  Biso   1.000  O
  O60      1.0000 0.50187  0.95408  0.58999  Biso   1.000  O
  O61      1.0000 0.49814  0.04594  0.04594  Biso   1.000  O
  O62      1.0000 0.40999  0.04593  0.04593  Biso   1.000  O
  O63      1.0000 0.04591  0.49814  0.41001  Biso   1.000  O
  O64      1.0000 0.04591  0.41001  0.49814  Biso   1.000  O
  O65      1.0000 0.49813  0.04592  0.41001  Biso   1.000  O
  O66      1.0000 0.41000  0.04592  0.49813  Biso   1.000  O
  O67      1.0000 0.04594  0.40999  0.04594  Biso   1.000  O
  O68      1.0000 0.04595  0.49813  0.04595  Biso   1.000  O
  O69      1.0000 0.49813  0.41001  0.04592  Biso   1.000  O
  O70      1.0000 0.41000  0.49813  0.04592  Biso   1.000  O
  O71      1.0000 0.04595  0.04595  0.49813  Biso   1.000  O
  O72      1.0000 0.04594  0.04594  0.40999  Biso   1.000  O
  O73      1.0000 0.63006  0.84313  0.02543  Biso   1.000  O
  O74      1.0000 0.50135  0.02540  0.84315  Biso   1.000  O
  O75      1.0000 0.02544  0.50142  0.63004  Biso   1.000  O
  O76      1.0000 0.84311  0.63003  0.50144  Biso   1.000  O
  O77      1.0000 0.84313  0.02543  0.63007  Biso   1.000  O
  O78      1.0000 0.02539  0.84315  0.50135  Biso   1.000  O
  O79      1.0000 0.50141  0.63005  0.02545  Biso   1.000  O
  O80      1.0000 0.63004  0.50143  0.84311  Biso   1.000  O
  O81      1.0000 0.02542  0.63007  0.84314  Biso   1.000  O
  O82      1.0000 0.84316  0.50135  0.02539  Biso   1.000  O
  O83      1.0000 0.63005  0.02543  0.50141  Biso   1.000  O
  O84      1.0000 0.50143  0.84311  0.63004  Biso   1.000  O
  O85      1.0000 0.49865  0.15685  0.97460  Biso   1.000  O
  O86      1.0000 0.36994  0.97457  0.15687  Biso   1.000  O
  O87      1.0000 0.15689  0.49856  0.36997  Biso   1.000  O
  O88      1.0000 0.97456  0.36996  0.49858  Biso   1.000  O
  O89      1.0000 0.49859  0.97455  0.36995  Biso   1.000  O
  O90      1.0000 0.36996  0.15689  0.49857  Biso   1.000  O
  O91      1.0000 0.15687  0.36993  0.97457  Biso   1.000  O
  O92      1.0000 0.97461  0.49865  0.15685  Biso   1.000  O
  O93      1.0000 0.49857  0.36996  0.15689  Biso   1.000  O
  O94      1.0000 0.36995  0.49859  0.97457  Biso   1.000  O
  O95      1.0000 0.15684  0.97461  0.49865  Biso   1.000  O
  O96      1.0000 0.97458  0.15686  0.36993  Biso   1.000  O
  O97      1.0000 0.36994  0.15687  0.97457  Biso   1.000  O
  O98      1.0000 0.49865  0.97460  0.15685  Biso   1.000  O
  O99      1.0000 0.97456  0.49858  0.36996  Biso   1.000  O
  O100     1.0000 0.15689  0.36997  0.49856  Biso   1.000  O
  O101     1.0000 0.15687  0.97457  0.36993  Biso   1.000  O
  O102     1.0000 0.97461  0.15685  0.49865  Biso   1.000  O
  O103     1.0000 0.49859  0.36995  0.97455  Biso   1.000  O
  O104     1.0000 0.36996  0.49857  0.15689  Biso   1.000  O
  O105     1.0000 0.97458  0.36993  0.15686  Biso   1.000  O
  O106     1.0000 0.15684  0.49865  0.97461  Biso   1.000  O
  O107     1.0000 0.36995  0.97457  0.49859  Biso   1.000  O
  O108     1.0000 0.49857  0.15689  0.36996  Biso   1.000  O
  O109     1.0000 0.50135  0.84315  0.02540  Biso   1.000  O
  O110     1.0000 0.63006  0.02543  0.84313  Biso   1.000  O
  O111     1.0000 0.84311  0.50144  0.63003  Biso   1.000  O
  O112     1.0000 0.02544  0.63004  0.50142  Biso   1.000  O
  O113     1.0000 0.50141  0.02545  0.63005  Biso   1.000  O
  O114     1.0000 0.63004  0.84311  0.50143  Biso   1.000  O
  O115     1.0000 0.84313  0.63007  0.02543  Biso   1.000  O
  O116     1.0000 0.02539  0.50135  0.84315  Biso   1.000  O
  O117     1.0000 0.50143  0.63004  0.84311  Biso   1.000  O
  O118     1.0000 0.63005  0.50141  0.02543  Biso   1.000  O
  O119     1.0000 0.84316  0.02539  0.50135  Biso   1.000  O
  O120     1.0000 0.02542  0.84314  0.63007  Biso   1.000  O
  O121     1.0000 0.45576  0.06564  0.93435  Biso   1.000  O
  O122     1.0000 0.54424  0.93436  0.06565  Biso   1.000  O
  O123     1.0000 0.93433  0.54424  0.45576  Biso   1.000  O
  O124     1.0000 0.06567  0.45576  0.54424  Biso   1.000  O
  O125     1.0000 0.06563  0.93436  0.45576  Biso   1.000  O
  O126     1.0000 0.93437  0.06564  0.54424  Biso   1.000  O
  O127     1.0000 0.54424  0.45576  0.93432  Biso   1.000  O
  O128     1.0000 0.45576  0.54424  0.06568  Biso   1.000  O
  O129     1.0000 0.93437  0.45576  0.06562  Biso   1.000  O
  O130     1.0000 0.06563  0.54424  0.93438  Biso   1.000  O
  O131     1.0000 0.45576  0.93434  0.54424  Biso   1.000  O
  O132     1.0000 0.54424  0.06566  0.45576  Biso   1.000  O
  O133     1.0000 0.45576  0.93435  0.06564  Biso   1.000  O
  O134     1.0000 0.54424  0.06565  0.93436  Biso   1.000  O
  O135     1.0000 0.93433  0.45576  0.54424  Biso   1.000  O
  O136     1.0000 0.06567  0.54424  0.45576  Biso   1.000  O
  O137     1.0000 0.45576  0.06568  0.54424  Biso   1.000  O
  O138     1.0000 0.54424  0.93432  0.45576  Biso   1.000  O
  O139     1.0000 0.93437  0.54424  0.06564  Biso   1.000  O
  O140     1.0000 0.06563  0.45576  0.93436  Biso   1.000  O
  O141     1.0000 0.45576  0.54424  0.93434  Biso   1.000  O
  O142     1.0000 0.54424  0.45576  0.06566  Biso   1.000  O
  O143     1.0000 0.93437  0.06562  0.45576  Biso   1.000  O
  O144     1.0000 0.06563  0.93438  0.54424  Biso   1.000  O
  S1       1.0000 0.74489  0.74489  0.02618  Biso   1.000  S
  S2       1.0000 0.48405  0.02618  0.74490  Biso   1.000  S
  S3       1.0000 0.02618  0.48405  0.74490  Biso   1.000  S
  S4       1.0000 0.74484  0.74484  0.48412  Biso   1.000  S
  S5       1.0000 0.74489  0.02618  0.74489  Biso   1.000  S
  S6       1.0000 0.02618  0.74490  0.48405  Biso   1.000  S
  S7       1.0000 0.48405  0.74490  0.02618  Biso   1.000  S
  S8       1.0000 0.74484  0.48412  0.74484  Biso   1.000  S
  S9       1.0000 0.02618  0.74489  0.74489  Biso   1.000  S
  S10      1.0000 0.74490  0.48404  0.02618  Biso   1.000  S
  S11      1.0000 0.74490  0.02618  0.48404  Biso   1.000  S
  S12      1.0000 0.48412  0.74485  0.74485  Biso   1.000  S
  S13      1.0000 0.51595  0.25510  0.97382  Biso   1.000  S
  S14      1.0000 0.25511  0.97382  0.25511  Biso   1.000  S
  S15      1.0000 0.25516  0.51588  0.25516  Biso   1.000  S
  S16      1.0000 0.97382  0.25510  0.51595  Biso   1.000  S
  S17      1.0000 0.51595  0.97382  0.25510  Biso   1.000  S
  S18      1.0000 0.25516  0.25516  0.51588  Biso   1.000  S
  S19      1.0000 0.25511  0.25511  0.97382  Biso   1.000  S
  S20      1.0000 0.97382  0.51595  0.25510  Biso   1.000  S
  S21      1.0000 0.51588  0.25515  0.25515  Biso   1.000  S
  S22      1.0000 0.25510  0.51596  0.97382  Biso   1.000  S
  S23      1.0000 0.25510  0.97382  0.51596  Biso   1.000  S
  S24      1.0000 0.97382  0.25511  0.25511  Biso   1.000  S
  Zr1      1.0000 0.54177  0.01755  0.89891  Biso   1.000  Zr
  Zr2      1.0000 0.54177  0.89891  0.01755  Biso   1.000  Zr
  Zr3      1.0000 0.89890  0.54176  0.54176  Biso   1.000  Zr
  Zr4      1.0000 0.01758  0.54177  0.54177  Biso   1.000  Zr
  Zr5      1.0000 0.01754  0.89891  0.54177  Biso   1.000  Zr
  Zr6      1.0000 0.89891  0.01754  0.54178  Biso   1.000  Zr
  Zr7      1.0000 0.54177  0.54177  0.89890  Biso   1.000  Zr
  Zr8      1.0000 0.54177  0.54177  0.01757  Biso   1.000  Zr
  Zr9      1.0000 0.89891  0.54178  0.01754  Biso   1.000  Zr
  Zr10     1.0000 0.01754  0.54177  0.89891  Biso   1.000  Zr
  Zr11     1.0000 0.54177  0.89890  0.54177  Biso   1.000  Zr
  Zr12     1.0000 0.54177  0.01757  0.54177  Biso   1.000  Zr
  Zr13     1.0000 0.45823  0.98245  0.10109  Biso   1.000  Zr
  Zr14     1.0000 0.45823  0.10109  0.98245  Biso   1.000  Zr
  Zr15     1.0000 0.98242  0.45823  0.45823  Biso   1.000  Zr
  Zr16     1.0000 0.10110  0.45824  0.45824  Biso   1.000  Zr
  Zr17     1.0000 0.45823  0.10110  0.45823  Biso   1.000  Zr
  Zr18     1.0000 0.45823  0.98243  0.45823  Biso   1.000  Zr
  Zr19     1.0000 0.98246  0.45823  0.10109  Biso   1.000  Zr
  Zr20     1.0000 0.10109  0.45822  0.98246  Biso   1.000  Zr
  Zr21     1.0000 0.45823  0.45823  0.98243  Biso   1.000  Zr
  Zr22     1.0000 0.45823  0.45823  0.10110  Biso   1.000  Zr
  Zr23     1.0000 0.98246  0.10109  0.45823  Biso   1.000  Zr
  Zr24     1.0000 0.10109  0.98246  0.45822  Biso   1.000  Zr
  Zr25     1.0000 0.58663  0.00001  0.00001  Biso   1.000  Zr
  Zr26     1.0000 0.41337  0.99999  0.99999  Biso   1.000  Zr
  Zr27     1.0000 1.00000  0.41340  0.58660  Biso   1.000  Zr
  Zr28     1.0000 0.00000  0.58660  0.41340  Biso   1.000  Zr
  Zr29     1.0000 0.00001  0.00001  0.58663  Biso   1.000  Zr
  Zr30     1.0000 0.99999  0.99999  0.41337  Biso   1.000  Zr
  Zr31     1.0000 0.41340  0.58660  0.00000  Biso   1.000  Zr
  Zr32     1.0000 0.58660  0.41340  1.00000  Biso   1.000  Zr
  Zr33     1.0000 0.00001  0.58663  0.00001  Biso   1.000  Zr
  Zr34     1.0000 0.99999  0.41337  0.99999  Biso   1.000  Zr
  Zr35     1.0000 0.58660  1.00000  0.41340  Biso   1.000  Zr
  Zr36     1.0000 0.41340  0.00000  0.58660  Biso   1.000  Zr
