data_image0
_cell_length_a       15.2876
_cell_length_b       15.2883
_cell_length_c       15.2883
_cell_angle_alpha    109.477
_cell_angle_beta     109.462
_cell_angle_gamma    109.462

_symmetry_space_group_name_H-M    "P 1"
_symmetry_int_tables_number       1

loop_
  _symmetry_equiv_pos_as_xyz
  'x, y, z'

loop_
  _atom_site_label
  _atom_site_occupancy
  _atom_site_fract_x
  _atom_site_fract_y
  _atom_site_fract_z
  _atom_site_thermal_displace_type
  _atom_site_B_iso_or_equiv
  _atom_site_type_symbol
  O1       1.0000 0.28458  0.70206  0.70206  Biso   1.000  O
  O2       1.0000 0.58235  0.29810  0.99996  Biso   1.000  O
  O3       1.0000 0.58236  0.99996  0.29810  Biso   1.000  O
  O4       1.0000 0.99996  0.29809  0.58233  Biso   1.000  O
  O5       1.0000 0.29810  0.99995  0.58237  Biso   1.000  O
  O6       1.0000 0.70208  0.70207  0.28465  Biso   1.000  O
  O7       1.0000 0.99996  0.58233  0.29809  Biso   1.000  O
  O8       1.0000 0.29810  0.58237  0.99995  Biso   1.000  O
  O9       1.0000 0.70208  0.28465  0.70207  Biso   1.000  O
  O10      1.0000 0.71525  0.41727  0.41727  Biso   1.000  O
  O11      1.0000 0.41726  0.71522  0.41726  Biso   1.000  O
  O12      1.0000 0.41726  0.41726  0.71522  Biso   1.000  O
  O13      1.0000 0.29167  0.63982  0.84854  Biso   1.000  O
  O14      1.0000 0.44307  0.15139  0.79128  Biso   1.000  O
  O15      1.0000 0.65161  0.20849  0.36007  Biso   1.000  O
  O16      1.0000 0.79130  0.15138  0.44306  Biso   1.000  O
  O17      1.0000 0.36008  0.20848  0.65158  Biso   1.000  O
  O18      1.0000 0.84857  0.63981  0.29173  Biso   1.000  O
  O19      1.0000 0.79130  0.44306  0.15138  Biso   1.000  O
  O20      1.0000 0.36008  0.65157  0.20848  Biso   1.000  O
  O21      1.0000 0.84857  0.29173  0.63981  Biso   1.000  O
  O22      1.0000 0.70833  0.34822  0.55680  Biso   1.000  O
  O23      1.0000 0.55681  0.70833  0.34819  Biso   1.000  O
  O24      1.0000 0.34815  0.55679  0.70828  Biso   1.000  O
  O25      1.0000 0.20847  0.36007  0.65156  Biso   1.000  O
  O26      1.0000 0.63981  0.84854  0.29169  Biso   1.000  O
  O27      1.0000 0.15137  0.79127  0.44309  Biso   1.000  O
  O28      1.0000 0.29167  0.84854  0.63982  Biso   1.000  O
  O29      1.0000 0.44307  0.79128  0.15139  Biso   1.000  O
  O30      1.0000 0.65161  0.36007  0.20849  Biso   1.000  O
  O31      1.0000 0.70833  0.55680  0.34822  Biso   1.000  O
  O32      1.0000 0.55681  0.34819  0.70833  Biso   1.000  O
  O33      1.0000 0.34815  0.70828  0.55679  Biso   1.000  O
  O34      1.0000 0.20847  0.65156  0.36007  Biso   1.000  O
  O35      1.0000 0.63981  0.29169  0.84854  Biso   1.000  O
  O36      1.0000 0.15137  0.44309  0.79127  Biso   1.000  O
  O37      1.0000 0.14361  0.50013  0.64366  Biso   1.000  O
  O38      1.0000 0.49970  0.35620  0.85619  Biso   1.000  O
  O39      1.0000 0.64370  0.14368  0.50014  Biso   1.000  O
  O40      1.0000 0.85621  0.35620  0.49969  Biso   1.000  O
  O41      1.0000 0.50015  0.14363  0.64368  Biso   1.000  O
  O42      1.0000 0.64370  0.50014  0.14368  Biso   1.000  O
  O43      1.0000 0.85621  0.49969  0.35620  Biso   1.000  O
  O44      1.0000 0.50015  0.64368  0.14363  Biso   1.000  O
  O45      1.0000 0.49970  0.85619  0.35620  Biso   1.000  O
  O46      1.0000 0.35617  0.49973  0.85616  Biso   1.000  O
  O47      1.0000 0.35617  0.85616  0.49973  Biso   1.000  O
  O48      1.0000 0.14361  0.64366  0.50013  Biso   1.000  O
  Si1      1.0000 0.26753  0.60331  0.72443  Biso   1.000  Si
  Si2      1.0000 0.54296  0.27554  0.87880  Biso   1.000  Si
  Si3      1.0000 0.66419  0.12106  0.39677  Biso   1.000  Si
  Si4      1.0000 0.87880  0.27554  0.54295  Biso   1.000  Si
  Si5      1.0000 0.39678  0.12105  0.66417  Biso   1.000  Si
  Si6      1.0000 0.72446  0.60332  0.26761  Biso   1.000  Si
  Si7      1.0000 0.87880  0.54295  0.27554  Biso   1.000  Si
  Si8      1.0000 0.39678  0.66417  0.12105  Biso   1.000  Si
  Si9      1.0000 0.72446  0.26761  0.60332  Biso   1.000  Si
  Si10     1.0000 0.73234  0.33561  0.45672  Biso   1.000  Si
  Si11     1.0000 0.45671  0.73232  0.33560  Biso   1.000  Si
  Si12     1.0000 0.33558  0.45672  0.73228  Biso   1.000  Si
  Si13     1.0000 0.12104  0.39678  0.66416  Biso   1.000  Si
  Si14     1.0000 0.60332  0.72444  0.26757  Biso   1.000  Si
  Si15     1.0000 0.27552  0.87878  0.54298  Biso   1.000  Si
  Si16     1.0000 0.26753  0.72443  0.60331  Biso   1.000  Si
  Si17     1.0000 0.54296  0.87880  0.27554  Biso   1.000  Si
  Si18     1.0000 0.66419  0.39677  0.12106  Biso   1.000  Si
  Si19     1.0000 0.73234  0.45672  0.33561  Biso   1.000  Si
  Si20     1.0000 0.45671  0.33560  0.73232  Biso   1.000  Si
  Si21     1.0000 0.33558  0.73228  0.45672  Biso   1.000  Si
  Si22     1.0000 0.12104  0.66416  0.39678  Biso   1.000  Si
  Si23     1.0000 0.60332  0.26757  0.72444  Biso   1.000  Si
  Si24     1.0000 0.27552  0.54298  0.87878  Biso   1.000  Si
