data_image0
_cell_length_a       33.243
_cell_length_b       33.2436
_cell_length_c       33.2436
_cell_angle_alpha    60.035
_cell_angle_beta     60.0354
_cell_angle_gamma    60.0354

_symmetry_space_group_name_H-M    "P 1"
_symmetry_int_tables_number       1

loop_
  _symmetry_equiv_pos_as_xyz
  'x, y, z'

loop_
  _atom_site_label
  _atom_site_occupancy
  _atom_site_fract_x
  _atom_site_fract_y
  _atom_site_fract_z
  _atom_site_thermal_displace_type
  _atom_site_B_iso_or_equiv
  _atom_site_type_symbol
  C1       1.0000 0.03888  0.03888  0.51491  Biso   1.000  C
  C2       1.0000 0.03888  0.51491  0.03888  Biso   1.000  C
  C3       1.0000 0.51491  0.03888  0.03888  Biso   1.000  C
  C4       1.0000 0.59253  0.96111  0.48517  Biso   1.000  C
  C5       1.0000 0.96113  0.59256  0.96112  Biso   1.000  C
  C6       1.0000 0.48517  0.96111  0.59253  Biso   1.000  C
  C7       1.0000 0.59253  0.48517  0.96111  Biso   1.000  C
  C8       1.0000 0.96112  0.96112  0.59256  Biso   1.000  C
  C9       1.0000 0.48517  0.59253  0.96111  Biso   1.000  C
  C10      1.0000 0.59258  0.96112  0.96111  Biso   1.000  C
  C11      1.0000 0.96111  0.59254  0.48516  Biso   1.000  C
  C12      1.0000 0.96111  0.48516  0.59254  Biso   1.000  C
  C13      1.0000 0.40747  0.51483  0.03888  Biso   1.000  C
  C14      1.0000 0.51483  0.40747  0.03889  Biso   1.000  C
  C15      1.0000 0.03888  0.03888  0.40744  Biso   1.000  C
  C16      1.0000 0.51483  0.03889  0.40747  Biso   1.000  C
  C17      1.0000 0.40747  0.03889  0.51483  Biso   1.000  C
  C18      1.0000 0.03888  0.40744  0.03888  Biso   1.000  C
  C19      1.0000 0.03889  0.40746  0.51484  Biso   1.000  C
  C20      1.0000 0.03889  0.51484  0.40746  Biso   1.000  C
  C21      1.0000 0.40742  0.03889  0.03888  Biso   1.000  C
  C22      1.0000 0.96112  0.48509  0.96112  Biso   1.000  C
  C23      1.0000 0.96112  0.96112  0.48509  Biso   1.000  C
  C24      1.0000 0.48509  0.96112  0.96112  Biso   1.000  C
  C25      1.0000 0.06253  0.06253  0.52123  Biso   1.000  C
  C26      1.0000 0.06253  0.52123  0.06253  Biso   1.000  C
  C27      1.0000 0.52123  0.06254  0.06254  Biso   1.000  C
  C28      1.0000 0.64610  0.93744  0.47886  Biso   1.000  C
  C29      1.0000 0.93749  0.64615  0.93748  Biso   1.000  C
  C30      1.0000 0.47886  0.93743  0.64610  Biso   1.000  C
  C31      1.0000 0.64610  0.47886  0.93744  Biso   1.000  C
  C32      1.0000 0.93749  0.93748  0.64615  Biso   1.000  C
  C33      1.0000 0.47886  0.64610  0.93743  Biso   1.000  C
  C34      1.0000 0.64617  0.93748  0.93748  Biso   1.000  C
  C35      1.0000 0.93743  0.64611  0.47885  Biso   1.000  C
  C36      1.0000 0.93743  0.47885  0.64611  Biso   1.000  C
  C37      1.0000 0.35390  0.52114  0.06256  Biso   1.000  C
  C38      1.0000 0.52114  0.35390  0.06257  Biso   1.000  C
  C39      1.0000 0.06251  0.06252  0.35385  Biso   1.000  C
  C40      1.0000 0.52114  0.06257  0.35390  Biso   1.000  C
  C41      1.0000 0.35390  0.06256  0.52114  Biso   1.000  C
  C42      1.0000 0.06251  0.35385  0.06252  Biso   1.000  C
  C43      1.0000 0.06257  0.35389  0.52115  Biso   1.000  C
  C44      1.0000 0.06257  0.52115  0.35389  Biso   1.000  C
  C45      1.0000 0.35383  0.06252  0.06252  Biso   1.000  C
  C46      1.0000 0.93747  0.47877  0.93747  Biso   1.000  C
  C47      1.0000 0.93747  0.93747  0.47877  Biso   1.000  C
  C48      1.0000 0.47877  0.93746  0.93746  Biso   1.000  C
  C49      1.0000 0.03742  0.11046  0.52359  Biso   1.000  C
  C50      1.0000 0.11047  0.52359  0.03741  Biso   1.000  C
  C51      1.0000 0.52359  0.03743  0.11047  Biso   1.000  C
  C52      1.0000 0.67119  0.88951  0.47649  Biso   1.000  C
  C53      1.0000 0.88958  0.67132  0.96260  Biso   1.000  C
  C54      1.0000 0.47649  0.96253  0.67131  Biso   1.000  C
  C55      1.0000 0.67131  0.47649  0.96254  Biso   1.000  C
  C56      1.0000 0.96261  0.88956  0.67132  Biso   1.000  C
  C57      1.0000 0.47649  0.67119  0.88950  Biso   1.000  C
  C58      1.0000 0.67134  0.96260  0.88956  Biso   1.000  C
  C59      1.0000 0.96253  0.67133  0.47649  Biso   1.000  C
  C60      1.0000 0.88950  0.47649  0.67120  Biso   1.000  C
  C61      1.0000 0.32881  0.52351  0.11049  Biso   1.000  C
  C62      1.0000 0.52351  0.32869  0.03747  Biso   1.000  C
  C63      1.0000 0.11042  0.03740  0.32868  Biso   1.000  C
  C64      1.0000 0.52351  0.11050  0.32881  Biso   1.000  C
  C65      1.0000 0.32869  0.03746  0.52351  Biso   1.000  C
  C66      1.0000 0.03739  0.32868  0.11044  Biso   1.000  C
  C67      1.0000 0.11050  0.32880  0.52351  Biso   1.000  C
  C68      1.0000 0.03747  0.52351  0.32867  Biso   1.000  C
  C69      1.0000 0.32866  0.11044  0.03740  Biso   1.000  C
  C70      1.0000 0.96258  0.47641  0.88954  Biso   1.000  C
  C71      1.0000 0.88953  0.96259  0.47641  Biso   1.000  C
  C72      1.0000 0.47641  0.88953  0.96257  Biso   1.000  C
  C73      1.0000 0.96258  0.88954  0.47641  Biso   1.000  C
  C74      1.0000 0.88953  0.47641  0.96259  Biso   1.000  C
  C75      1.0000 0.47641  0.96257  0.88953  Biso   1.000  C
  C76      1.0000 0.32881  0.11049  0.52351  Biso   1.000  C
  C77      1.0000 0.11042  0.32868  0.03740  Biso   1.000  C
  C78      1.0000 0.52351  0.03747  0.32869  Biso   1.000  C
  C79      1.0000 0.32869  0.52351  0.03746  Biso   1.000  C
  C80      1.0000 0.03739  0.11044  0.32868  Biso   1.000  C
  C81      1.0000 0.52351  0.32881  0.11050  Biso   1.000  C
  C82      1.0000 0.32866  0.03740  0.11044  Biso   1.000  C
  C83      1.0000 0.03747  0.32867  0.52351  Biso   1.000  C
  C84      1.0000 0.11050  0.52351  0.32880  Biso   1.000  C
  C85      1.0000 0.67119  0.47649  0.88951  Biso   1.000  C
  C86      1.0000 0.47649  0.67131  0.96253  Biso   1.000  C
  C87      1.0000 0.88958  0.96260  0.67132  Biso   1.000  C
  C88      1.0000 0.47649  0.88950  0.67119  Biso   1.000  C
  C89      1.0000 0.67131  0.96254  0.47649  Biso   1.000  C
  C90      1.0000 0.96261  0.67132  0.88956  Biso   1.000  C
  C91      1.0000 0.88950  0.67120  0.47649  Biso   1.000  C
  C92      1.0000 0.96253  0.47649  0.67133  Biso   1.000  C
  C93      1.0000 0.67134  0.88956  0.96260  Biso   1.000  C
  C94      1.0000 0.03742  0.52359  0.11046  Biso   1.000  C
  C95      1.0000 0.11047  0.03741  0.52359  Biso   1.000  C
  C96      1.0000 0.52359  0.11047  0.03743  Biso   1.000  C
  C97      1.0000 0.06024  0.13325  0.52746  Biso   1.000  C
  C98      1.0000 0.13327  0.52746  0.06023  Biso   1.000  C
  C99      1.0000 0.52746  0.06025  0.13327  Biso   1.000  C
  C100     1.0000 0.72065  0.86670  0.47260  Biso   1.000  C
  C101     1.0000 0.86680  0.72077  0.93980  Biso   1.000  C
  C102     1.0000 0.47259  0.93970  0.72077  Biso   1.000  C
  C103     1.0000 0.72077  0.47259  0.93971  Biso   1.000  C
  C104     1.0000 0.93981  0.86679  0.72077  Biso   1.000  C
  C105     1.0000 0.47260  0.72065  0.86669  Biso   1.000  C
  C106     1.0000 0.72079  0.93980  0.86678  Biso   1.000  C
  C107     1.0000 0.93970  0.72079  0.47259  Biso   1.000  C
  C108     1.0000 0.86669  0.47260  0.72067  Biso   1.000  C
  C109     1.0000 0.27935  0.52740  0.13330  Biso   1.000  C
  C110     1.0000 0.52741  0.27923  0.06030  Biso   1.000  C
  C111     1.0000 0.13320  0.06020  0.27923  Biso   1.000  C
  C112     1.0000 0.52740  0.13331  0.27935  Biso   1.000  C
  C113     1.0000 0.27923  0.06029  0.52741  Biso   1.000  C
  C114     1.0000 0.06019  0.27923  0.13321  Biso   1.000  C
  C115     1.0000 0.13331  0.27933  0.52740  Biso   1.000  C
  C116     1.0000 0.06030  0.52741  0.27921  Biso   1.000  C
  C117     1.0000 0.27921  0.13322  0.06020  Biso   1.000  C
  C118     1.0000 0.93976  0.47254  0.86675  Biso   1.000  C
  C119     1.0000 0.86673  0.93977  0.47254  Biso   1.000  C
  C120     1.0000 0.47254  0.86673  0.93975  Biso   1.000  C
  C121     1.0000 0.93976  0.86675  0.47254  Biso   1.000  C
  C122     1.0000 0.86673  0.47254  0.93977  Biso   1.000  C
  C123     1.0000 0.47254  0.93975  0.86673  Biso   1.000  C
  C124     1.0000 0.27935  0.13330  0.52740  Biso   1.000  C
  C125     1.0000 0.13320  0.27923  0.06020  Biso   1.000  C
  C126     1.0000 0.52741  0.06030  0.27923  Biso   1.000  C
  C127     1.0000 0.27923  0.52741  0.06029  Biso   1.000  C
  C128     1.0000 0.06019  0.13321  0.27923  Biso   1.000  C
  C129     1.0000 0.52740  0.27935  0.13331  Biso   1.000  C
  C130     1.0000 0.27921  0.06020  0.13322  Biso   1.000  C
  C131     1.0000 0.06030  0.27921  0.52741  Biso   1.000  C
  C132     1.0000 0.13331  0.52740  0.27933  Biso   1.000  C
  C133     1.0000 0.72065  0.47260  0.86670  Biso   1.000  C
  C134     1.0000 0.47259  0.72077  0.93970  Biso   1.000  C
  C135     1.0000 0.86680  0.93980  0.72077  Biso   1.000  C
  C136     1.0000 0.47260  0.86669  0.72065  Biso   1.000  C
  C137     1.0000 0.72077  0.93971  0.47259  Biso   1.000  C
  C138     1.0000 0.93981  0.72077  0.86679  Biso   1.000  C
  C139     1.0000 0.86669  0.72067  0.47260  Biso   1.000  C
  C140     1.0000 0.93970  0.47259  0.72079  Biso   1.000  C
  C141     1.0000 0.72079  0.86678  0.93980  Biso   1.000  C
  C142     1.0000 0.06024  0.52746  0.13325  Biso   1.000  C
  C143     1.0000 0.13327  0.06023  0.52746  Biso   1.000  C
  C144     1.0000 0.52746  0.13327  0.06025  Biso   1.000  C
  C145     1.0000 0.10855  0.10854  0.52900  Biso   1.000  C
  C146     1.0000 0.10855  0.52900  0.10854  Biso   1.000  C
  C147     1.0000 0.52900  0.10855  0.10855  Biso   1.000  C
  C148     1.0000 0.74583  0.89141  0.47103  Biso   1.000  C
  C149     1.0000 0.89151  0.74590  0.89150  Biso   1.000  C
  C150     1.0000 0.47104  0.89140  0.74582  Biso   1.000  C
  C151     1.0000 0.74583  0.47103  0.89141  Biso   1.000  C
  C152     1.0000 0.89151  0.89150  0.74590  Biso   1.000  C
  C153     1.0000 0.47104  0.74582  0.89140  Biso   1.000  C
  C154     1.0000 0.74592  0.89150  0.89150  Biso   1.000  C
  C155     1.0000 0.89140  0.74584  0.47103  Biso   1.000  C
  C156     1.0000 0.89140  0.47103  0.74584  Biso   1.000  C
  C157     1.0000 0.25417  0.52897  0.10859  Biso   1.000  C
  C158     1.0000 0.52896  0.25418  0.10860  Biso   1.000  C
  C159     1.0000 0.10849  0.10850  0.25410  Biso   1.000  C
  C160     1.0000 0.52896  0.10860  0.25418  Biso   1.000  C
  C161     1.0000 0.25417  0.10859  0.52897  Biso   1.000  C
  C162     1.0000 0.10849  0.25410  0.10850  Biso   1.000  C
  C163     1.0000 0.10860  0.25416  0.52897  Biso   1.000  C
  C164     1.0000 0.10860  0.52897  0.25416  Biso   1.000  C
  C165     1.0000 0.25408  0.10850  0.10850  Biso   1.000  C
  C166     1.0000 0.89145  0.47100  0.89146  Biso   1.000  C
  C167     1.0000 0.89145  0.89146  0.47100  Biso   1.000  C
  C168     1.0000 0.47100  0.89145  0.89145  Biso   1.000  C
  C169     1.0000 0.13367  0.13366  0.53074  Biso   1.000  C
  C170     1.0000 0.13367  0.53074  0.13366  Biso   1.000  C
  C171     1.0000 0.53074  0.13367  0.13367  Biso   1.000  C
  C172     1.0000 0.79778  0.86631  0.46927  Biso   1.000  C
  C173     1.0000 0.86641  0.79786  0.86639  Biso   1.000  C
  C174     1.0000 0.46927  0.86629  0.79778  Biso   1.000  C
  C175     1.0000 0.79778  0.46927  0.86631  Biso   1.000  C
  C176     1.0000 0.86641  0.86639  0.79786  Biso   1.000  C
  C177     1.0000 0.46927  0.79778  0.86629  Biso   1.000  C
  C178     1.0000 0.79788  0.86639  0.86639  Biso   1.000  C
  C179     1.0000 0.86630  0.79779  0.46927  Biso   1.000  C
  C180     1.0000 0.86630  0.46927  0.79779  Biso   1.000  C
  C181     1.0000 0.20222  0.53073  0.13369  Biso   1.000  C
  C182     1.0000 0.53073  0.20222  0.13371  Biso   1.000  C
  C183     1.0000 0.13359  0.13361  0.20214  Biso   1.000  C
  C184     1.0000 0.53073  0.13371  0.20222  Biso   1.000  C
  C185     1.0000 0.20222  0.13369  0.53073  Biso   1.000  C
  C186     1.0000 0.13359  0.20214  0.13361  Biso   1.000  C
  C187     1.0000 0.13370  0.20221  0.53073  Biso   1.000  C
  C188     1.0000 0.13370  0.53073  0.20221  Biso   1.000  C
  C189     1.0000 0.20212  0.13361  0.13361  Biso   1.000  C
  C190     1.0000 0.86633  0.46926  0.86634  Biso   1.000  C
  C191     1.0000 0.86633  0.86634  0.46926  Biso   1.000  C
  C192     1.0000 0.46926  0.86633  0.86633  Biso   1.000  C
  Cu1      1.0000 0.03669  0.96331  0.50000  Biso   1.000  Cu
  Cu2      1.0000 0.96331  0.50000  0.03669  Biso   1.000  Cu
  Cu3      1.0000 0.50000  0.03668  0.96332  Biso   1.000  Cu
  Cu4      1.0000 0.50005  0.03667  0.50005  Biso   1.000  Cu
  Cu5      1.0000 0.03669  0.50000  0.96331  Biso   1.000  Cu
  Cu6      1.0000 0.49995  0.96333  0.49995  Biso   1.000  Cu
  Cu7      1.0000 0.49995  0.49995  0.96333  Biso   1.000  Cu
  Cu8      1.0000 0.96331  0.03669  0.50000  Biso   1.000  Cu
  Cu9      1.0000 0.50005  0.50005  0.03667  Biso   1.000  Cu
  Cu10     1.0000 0.50000  0.96332  0.03668  Biso   1.000  Cu
  Cu11     1.0000 0.96333  0.49995  0.49995  Biso   1.000  Cu
  Cu12     1.0000 0.03667  0.50005  0.50005  Biso   1.000  Cu
  H1       1.0000 0.00029  0.12937  0.52190  Biso   1.000  H
  H2       1.0000 0.12937  0.52190  0.00028  Biso   1.000  H
  H3       1.0000 0.52190  0.00029  0.12938  Biso   1.000  H
  H4       1.0000 0.65121  0.87063  0.47821  Biso   1.000  H
  H5       1.0000 0.87066  0.65140  0.99973  Biso   1.000  H
  H6       1.0000 0.47821  0.99966  0.65142  Biso   1.000  H
  H7       1.0000 0.65143  0.47821  0.99967  Biso   1.000  H
  H8       1.0000 0.99974  0.87065  0.65140  Biso   1.000  H
  H9       1.0000 0.47821  0.65120  0.87062  Biso   1.000  H
  H10      1.0000 0.65143  0.99973  0.87064  Biso   1.000  H
  H11      1.0000 0.99966  0.65144  0.47821  Biso   1.000  H
  H12      1.0000 0.87061  0.47821  0.65122  Biso   1.000  H
  H13      1.0000 0.34879  0.52179  0.12937  Biso   1.000  H
  H14      1.0000 0.52179  0.34858  0.00034  Biso   1.000  H
  H15      1.0000 0.12934  0.00027  0.34860  Biso   1.000  H
  H16      1.0000 0.52179  0.12938  0.34880  Biso   1.000  H
  H17      1.0000 0.34857  0.00033  0.52179  Biso   1.000  H
  H18      1.0000 0.00026  0.34860  0.12935  Biso   1.000  H
  H19      1.0000 0.12939  0.34878  0.52179  Biso   1.000  H
  H20      1.0000 0.00034  0.52179  0.34856  Biso   1.000  H
  H21      1.0000 0.34857  0.12936  0.00027  Biso   1.000  H
  H22      1.0000 0.99971  0.47810  0.87063  Biso   1.000  H
  H23      1.0000 0.87063  0.99972  0.47810  Biso   1.000  H
  H24      1.0000 0.47810  0.87062  0.99971  Biso   1.000  H
  H25      1.0000 0.99971  0.87063  0.47810  Biso   1.000  H
  H26      1.0000 0.87062  0.47810  0.99972  Biso   1.000  H
  H27      1.0000 0.47810  0.99971  0.87062  Biso   1.000  H
  H28      1.0000 0.34879  0.12937  0.52179  Biso   1.000  H
  H29      1.0000 0.12934  0.34860  0.00027  Biso   1.000  H
  H30      1.0000 0.52179  0.00034  0.34858  Biso   1.000  H
  H31      1.0000 0.34857  0.52179  0.00033  Biso   1.000  H
  H32      1.0000 0.00026  0.12935  0.34860  Biso   1.000  H
  H33      1.0000 0.52179  0.34880  0.12938  Biso   1.000  H
  H34      1.0000 0.34857  0.00027  0.12936  Biso   1.000  H
  H35      1.0000 0.00034  0.34856  0.52179  Biso   1.000  H
  H36      1.0000 0.12939  0.52179  0.34878  Biso   1.000  H
  H37      1.0000 0.65121  0.47821  0.87063  Biso   1.000  H
  H38      1.0000 0.47821  0.65142  0.99966  Biso   1.000  H
  H39      1.0000 0.87066  0.99973  0.65140  Biso   1.000  H
  H40      1.0000 0.47821  0.87062  0.65120  Biso   1.000  H
  H41      1.0000 0.65143  0.99967  0.47821  Biso   1.000  H
  H42      1.0000 0.99974  0.65140  0.87065  Biso   1.000  H
  H43      1.0000 0.87061  0.65122  0.47821  Biso   1.000  H
  H44      1.0000 0.99966  0.47821  0.65144  Biso   1.000  H
  H45      1.0000 0.65143  0.87064  0.99973  Biso   1.000  H
  H46      1.0000 0.00029  0.52190  0.12937  Biso   1.000  H
  H47      1.0000 0.12937  0.00028  0.52190  Biso   1.000  H
  H48      1.0000 0.52190  0.12938  0.00029  Biso   1.000  H
  H49      1.0000 0.04149  0.17050  0.52884  Biso   1.000  H
  H50      1.0000 0.17051  0.52884  0.04147  Biso   1.000  H
  H51      1.0000 0.52884  0.04149  0.17051  Biso   1.000  H
  H52      1.0000 0.74046  0.82945  0.47123  Biso   1.000  H
  H53      1.0000 0.82956  0.74061  0.95858  Biso   1.000  H
  H54      1.0000 0.47121  0.95844  0.74067  Biso   1.000  H
  H55      1.0000 0.74068  0.47121  0.95844  Biso   1.000  H
  H56      1.0000 0.95859  0.82955  0.74061  Biso   1.000  H
  H57      1.0000 0.47123  0.74045  0.82944  Biso   1.000  H
  H58      1.0000 0.74064  0.95857  0.82955  Biso   1.000  H
  H59      1.0000 0.95843  0.74069  0.47121  Biso   1.000  H
  H60      1.0000 0.82944  0.47123  0.74047  Biso   1.000  H
  H61      1.0000 0.25954  0.52877  0.17055  Biso   1.000  H
  H62      1.0000 0.52879  0.25933  0.04156  Biso   1.000  H
  H63      1.0000 0.17044  0.04141  0.25939  Biso   1.000  H
  H64      1.0000 0.52877  0.17056  0.25955  Biso   1.000  H
  H65      1.0000 0.25932  0.04156  0.52879  Biso   1.000  H
  H66      1.0000 0.04141  0.25939  0.17045  Biso   1.000  H
  H67      1.0000 0.17056  0.25953  0.52877  Biso   1.000  H
  H68      1.0000 0.04157  0.52879  0.25931  Biso   1.000  H
  H69      1.0000 0.25936  0.17045  0.04143  Biso   1.000  H
  H70      1.0000 0.95851  0.47116  0.82950  Biso   1.000  H
  H71      1.0000 0.82949  0.95853  0.47116  Biso   1.000  H
  H72      1.0000 0.47116  0.82949  0.95851  Biso   1.000  H
  H73      1.0000 0.95851  0.82950  0.47116  Biso   1.000  H
  H74      1.0000 0.82949  0.47116  0.95853  Biso   1.000  H
  H75      1.0000 0.47116  0.95851  0.82949  Biso   1.000  H
  H76      1.0000 0.25954  0.17055  0.52877  Biso   1.000  H
  H77      1.0000 0.17044  0.25939  0.04141  Biso   1.000  H
  H78      1.0000 0.52879  0.04156  0.25933  Biso   1.000  H
  H79      1.0000 0.25932  0.52879  0.04156  Biso   1.000  H
  H80      1.0000 0.04141  0.17045  0.25939  Biso   1.000  H
  H81      1.0000 0.52877  0.25955  0.17056  Biso   1.000  H
  H82      1.0000 0.25936  0.04143  0.17045  Biso   1.000  H
  H83      1.0000 0.04157  0.25931  0.52879  Biso   1.000  H
  H84      1.0000 0.17056  0.52877  0.25953  Biso   1.000  H
  H85      1.0000 0.74046  0.47123  0.82945  Biso   1.000  H
  H86      1.0000 0.47121  0.74067  0.95844  Biso   1.000  H
  H87      1.0000 0.82956  0.95859  0.74061  Biso   1.000  H
  H88      1.0000 0.47123  0.82944  0.74045  Biso   1.000  H
  H89      1.0000 0.74068  0.95844  0.47121  Biso   1.000  H
  H90      1.0000 0.95859  0.74061  0.82955  Biso   1.000  H
  H91      1.0000 0.82944  0.74047  0.47123  Biso   1.000  H
  H92      1.0000 0.95843  0.47121  0.74069  Biso   1.000  H
  H93      1.0000 0.74064  0.82955  0.95857  Biso   1.000  H
  H94      1.0000 0.04149  0.52884  0.17050  Biso   1.000  H
  H95      1.0000 0.17051  0.04147  0.52884  Biso   1.000  H
  H96      1.0000 0.52884  0.17051  0.04149  Biso   1.000  H
  N1       1.0000 0.10869  0.18036  0.53085  Biso   1.000  N
  N2       1.0000 0.18038  0.53085  0.10868  Biso   1.000  N
  N3       1.0000 0.53085  0.10869  0.18038  Biso   1.000  N
  N4       1.0000 0.81959  0.81960  0.46914  Biso   1.000  N
  N5       1.0000 0.81971  0.81969  0.89139  Biso   1.000  N
  N6       1.0000 0.46915  0.89131  0.81962  Biso   1.000  N
  N7       1.0000 0.81962  0.46915  0.89132  Biso   1.000  N
  N8       1.0000 0.89141  0.81969  0.81969  Biso   1.000  N
  N9       1.0000 0.46914  0.81959  0.81959  Biso   1.000  N
  N10      1.0000 0.81971  0.89139  0.81969  Biso   1.000  N
  N11      1.0000 0.89131  0.81964  0.46915  Biso   1.000  N
  N12      1.0000 0.81959  0.46914  0.81960  Biso   1.000  N
  N13      1.0000 0.18041  0.53086  0.18040  Biso   1.000  N
  N14      1.0000 0.53085  0.18038  0.10869  Biso   1.000  N
  N15      1.0000 0.18029  0.10861  0.18031  Biso   1.000  N
  N16      1.0000 0.53086  0.18041  0.18041  Biso   1.000  N
  N17      1.0000 0.18038  0.10868  0.53085  Biso   1.000  N
  N18      1.0000 0.10859  0.18031  0.18031  Biso   1.000  N
  N19      1.0000 0.18041  0.18040  0.53086  Biso   1.000  N
  N20      1.0000 0.10869  0.53085  0.18036  Biso   1.000  N
  N21      1.0000 0.18029  0.18031  0.10861  Biso   1.000  N
  N22      1.0000 0.89131  0.46915  0.81964  Biso   1.000  N
  N23      1.0000 0.81962  0.89132  0.46915  Biso   1.000  N
  N24      1.0000 0.46915  0.81962  0.89131  Biso   1.000  N
  O1       1.0000 0.06405  0.99542  0.51215  Biso   1.000  O
  O2       1.0000 0.99542  0.51215  0.06406  Biso   1.000  O
  O3       1.0000 0.51216  0.06406  0.99543  Biso   1.000  O
  O4       1.0000 0.57158  0.00454  0.48797  Biso   1.000  O
  O5       1.0000 0.00457  0.57154  0.93593  Biso   1.000  O
  O6       1.0000 0.48786  0.93597  0.57147  Biso   1.000  O
  O7       1.0000 0.57148  0.48786  0.93597  Biso   1.000  O
  O8       1.0000 0.93594  0.00456  0.57155  Biso   1.000  O
  O9       1.0000 0.48797  0.57158  0.00454  Biso   1.000  O
  O10      1.0000 0.57156  0.93593  0.00456  Biso   1.000  O
  O11      1.0000 0.93597  0.57148  0.48786  Biso   1.000  O
  O12      1.0000 0.00454  0.48797  0.57159  Biso   1.000  O
  O13      1.0000 0.42842  0.51203  0.99546  Biso   1.000  O
  O14      1.0000 0.51214  0.42853  0.06403  Biso   1.000  O
  O15      1.0000 0.99543  0.06407  0.42846  Biso   1.000  O
  O16      1.0000 0.51203  0.99546  0.42842  Biso   1.000  O
  O17      1.0000 0.42852  0.06403  0.51214  Biso   1.000  O
  O18      1.0000 0.06406  0.42845  0.99544  Biso   1.000  O
  O19      1.0000 0.99546  0.42841  0.51203  Biso   1.000  O
  O20      1.0000 0.06403  0.51214  0.42852  Biso   1.000  O
  O21      1.0000 0.42844  0.99544  0.06407  Biso   1.000  O
  O22      1.0000 0.93595  0.48785  0.00458  Biso   1.000  O
  O23      1.0000 0.00458  0.93594  0.48785  Biso   1.000  O
  O24      1.0000 0.48784  0.00457  0.93594  Biso   1.000  O
  O25      1.0000 0.93595  0.00458  0.48785  Biso   1.000  O
  O26      1.0000 0.00458  0.48785  0.93594  Biso   1.000  O
  O27      1.0000 0.48784  0.93594  0.00457  Biso   1.000  O
  O28      1.0000 0.42842  0.99546  0.51203  Biso   1.000  O
  O29      1.0000 0.99543  0.42846  0.06407  Biso   1.000  O
  O30      1.0000 0.51214  0.06403  0.42853  Biso   1.000  O
  O31      1.0000 0.42852  0.51214  0.06403  Biso   1.000  O
  O32      1.0000 0.06406  0.99544  0.42845  Biso   1.000  O
  O33      1.0000 0.51203  0.42842  0.99546  Biso   1.000  O
  O34      1.0000 0.42844  0.06407  0.99544  Biso   1.000  O
  O35      1.0000 0.06403  0.42852  0.51214  Biso   1.000  O
  O36      1.0000 0.99546  0.51203  0.42841  Biso   1.000  O
  O37      1.0000 0.57158  0.48797  0.00454  Biso   1.000  O
  O38      1.0000 0.48786  0.57147  0.93597  Biso   1.000  O
  O39      1.0000 0.00457  0.93593  0.57154  Biso   1.000  O
  O40      1.0000 0.48797  0.00454  0.57158  Biso   1.000  O
  O41      1.0000 0.57148  0.93597  0.48786  Biso   1.000  O
  O42      1.0000 0.93594  0.57155  0.00456  Biso   1.000  O
  O43      1.0000 0.00454  0.57159  0.48797  Biso   1.000  O
  O44      1.0000 0.93597  0.48786  0.57148  Biso   1.000  O
  O45      1.0000 0.57156  0.00456  0.93593  Biso   1.000  O
  O46      1.0000 0.06405  0.51215  0.99542  Biso   1.000  O
  O47      1.0000 0.99542  0.06406  0.51215  Biso   1.000  O
  O48      1.0000 0.51216  0.99543  0.06406  Biso   1.000  O
