data_image0
_cell_length_a       11.8685
_cell_length_b       11.8685
_cell_length_c       11.8685
_cell_angle_alpha    90
_cell_angle_beta     90
_cell_angle_gamma    90

_symmetry_space_group_name_H-M    "P 1"
_symmetry_int_tables_number       1

loop_
  _symmetry_equiv_pos_as_xyz
  'x, y, z'

loop_
  _atom_site_label
  _atom_site_occupancy
  _atom_site_fract_x
  _atom_site_fract_y
  _atom_site_fract_z
  _atom_site_thermal_displace_type
  _atom_site_B_iso_or_equiv
  _atom_site_type_symbol
  Si1      1.0000 0.00000  0.18221  0.36514  Biso   1.000  Si
  Si2      1.0000 0.36514  1.00000  0.18221  Biso   1.000  Si
  Si3      1.0000 0.18221  0.36514  1.00000  Biso   1.000  Si
  Si4      1.0000 1.00000  0.18221  0.63486  Biso   1.000  Si
  Si5      1.0000 0.36514  1.00000  0.81779  Biso   1.000  Si
  Si6      1.0000 0.63486  1.00000  0.18221  Biso   1.000  Si
  Si7      1.0000 0.81779  0.36514  1.00000  Biso   1.000  Si
  Si8      1.0000 0.63486  1.00000  0.81779  Biso   1.000  Si
  Si9      1.0000 0.18221  1.00000  0.36514  Biso   1.000  Si
  Si10     1.0000 0.00000  0.36514  0.18221  Biso   1.000  Si
  Si11     1.0000 0.36514  0.18221  0.00000  Biso   1.000  Si
  Si12     1.0000 0.18221  0.00000  0.63486  Biso   1.000  Si
  Si13     1.0000 0.00000  0.36514  0.81779  Biso   1.000  Si
  Si14     1.0000 0.00000  0.63486  0.18221  Biso   1.000  Si
  Si15     1.0000 0.36514  0.81779  0.00000  Biso   1.000  Si
  Si16     1.0000 0.00000  0.63486  0.81779  Biso   1.000  Si
  Si17     1.0000 1.00000  0.81779  0.63486  Biso   1.000  Si
  Si18     1.0000 0.81779  0.63486  1.00000  Biso   1.000  Si
  Si19     1.0000 0.00000  0.81779  0.36514  Biso   1.000  Si
  Si20     1.0000 0.18221  0.63486  1.00000  Biso   1.000  Si
  Si21     1.0000 0.81779  0.00000  0.63486  Biso   1.000  Si
  Si22     1.0000 0.63486  0.81779  0.00000  Biso   1.000  Si
  Si23     1.0000 0.81779  1.00000  0.36514  Biso   1.000  Si
  Si24     1.0000 0.63486  0.18221  0.00000  Biso   1.000  Si
  O1       1.0000 0.00000  0.20334  0.50000  Biso   1.000  O
  O2       1.0000 0.50000  1.00000  0.20334  Biso   1.000  O
  O3       1.0000 0.20334  0.50000  0.00000  Biso   1.000  O
  O4       1.0000 0.50000  1.00000  0.79666  Biso   1.000  O
  O5       1.0000 0.79666  0.50000  1.00000  Biso   1.000  O
  O6       1.0000 0.20334  1.00000  0.50000  Biso   1.000  O
  O7       1.0000 0.00000  0.50000  0.20334  Biso   1.000  O
  O8       1.0000 0.50000  0.20334  0.00000  Biso   1.000  O
  O9       1.0000 0.00000  0.50000  0.79666  Biso   1.000  O
  O10      1.0000 0.50000  0.79666  0.00000  Biso   1.000  O
  O11      1.0000 0.00000  0.79666  0.50000  Biso   1.000  O
  O12      1.0000 0.79666  1.00000  0.50000  Biso   1.000  O
  O13      1.0000 0.11264  0.11264  0.32779  Biso   1.000  O
  O14      1.0000 0.32780  0.11264  0.11264  Biso   1.000  O
  O15      1.0000 0.11264  0.32779  0.11264  Biso   1.000  O
  O16      1.0000 0.11264  0.11264  0.67221  Biso   1.000  O
  O17      1.0000 0.32780  0.11264  0.88736  Biso   1.000  O
  O18      1.0000 0.11264  0.32779  0.88736  Biso   1.000  O
  O19      1.0000 0.88736  0.11264  0.32779  Biso   1.000  O
  O20      1.0000 0.67221  0.11264  0.11264  Biso   1.000  O
  O21      1.0000 0.88736  0.32779  0.11264  Biso   1.000  O
  O22      1.0000 0.88736  0.11264  0.67221  Biso   1.000  O
  O23      1.0000 0.67220  0.11264  0.88736  Biso   1.000  O
  O24      1.0000 0.88736  0.32780  0.88736  Biso   1.000  O
  O25      1.0000 0.11264  0.88736  0.32779  Biso   1.000  O
  O26      1.0000 0.11264  0.67220  0.11264  Biso   1.000  O
  O27      1.0000 0.32780  0.88736  0.11264  Biso   1.000  O
  O28      1.0000 0.11264  0.88736  0.67221  Biso   1.000  O
  O29      1.0000 0.11264  0.67220  0.88736  Biso   1.000  O
  O30      1.0000 0.32780  0.88736  0.88736  Biso   1.000  O
  O31      1.0000 0.88736  0.88736  0.67221  Biso   1.000  O
  O32      1.0000 0.67220  0.88736  0.88736  Biso   1.000  O
  O33      1.0000 0.88736  0.67220  0.88736  Biso   1.000  O
  O34      1.0000 0.88736  0.88736  0.32779  Biso   1.000  O
  O35      1.0000 0.67221  0.88736  0.11264  Biso   1.000  O
  O36      1.0000 0.88736  0.67220  0.11264  Biso   1.000  O
  O37      1.0000 0.00000  0.30423  0.30423  Biso   1.000  O
  O38      1.0000 0.30423  1.00000  0.30423  Biso   1.000  O
  O39      1.0000 0.30423  0.30422  1.00000  Biso   1.000  O
  O40      1.0000 0.00000  0.30423  0.69577  Biso   1.000  O
  O41      1.0000 0.30423  0.00000  0.69577  Biso   1.000  O
  O42      1.0000 0.69578  1.00000  0.30423  Biso   1.000  O
  O43      1.0000 0.69577  0.30423  1.00000  Biso   1.000  O
  O44      1.0000 0.69577  1.00000  0.69577  Biso   1.000  O
  O45      1.0000 0.00000  0.69577  0.30423  Biso   1.000  O
  O46      1.0000 0.30423  0.69577  0.00000  Biso   1.000  O
  O47      1.0000 1.00000  0.69577  0.69577  Biso   1.000  O
  O48      1.0000 0.69578  0.69577  1.00000  Biso   1.000  O
