data_image0
_cell_length_a       33.371
_cell_length_b       33.324
_cell_length_c       33.3462
_cell_angle_alpha    89.8738
_cell_angle_beta     86.5547
_cell_angle_gamma    88.4684

_symmetry_space_group_name_H-M    "P 1"
_symmetry_int_tables_number       1

loop_
  _symmetry_equiv_pos_as_xyz
  'x, y, z'

loop_
  _atom_site_label
  _atom_site_occupancy
  _atom_site_fract_x
  _atom_site_fract_y
  _atom_site_fract_z
  _atom_site_thermal_displace_type
  _atom_site_B_iso_or_equiv
  _atom_site_type_symbol
  Cu1      1.0000 0.77085  0.18236  0.13012  Biso   1.000  Cu
  Cu2      1.0000 0.82276  0.20645  0.20281  Biso   1.000  Cu
  Cu3      1.0000 0.77593  0.12322  0.20431  Biso   1.000  Cu
  Cu4      1.0000 0.82084  0.78479  0.84364  Biso   1.000  Cu
  Cu5      1.0000 0.90626  0.80896  0.80077  Biso   1.000  Cu
  Cu6      1.0000 0.82946  0.85607  0.77980  Biso   1.000  Cu
  Cu7      1.0000 0.19642  0.20654  0.87534  Biso   1.000  Cu
  Cu8      1.0000 0.14246  0.20472  0.80038  Biso   1.000  Cu
  Cu9      1.0000 0.21524  0.14066  0.80748  Biso   1.000  Cu
  Cu10     1.0000 0.21199  0.78117  0.15793  Biso   1.000  Cu
  Cu11     1.0000 0.13042  0.80387  0.20814  Biso   1.000  Cu
  Cu12     1.0000 0.20478  0.85934  0.21480  Biso   1.000  Cu
  H1       1.0000 0.80900  0.24017  0.06284  Biso   1.000  H
  H2       1.0000 0.86486  0.28456  0.16728  Biso   1.000  H
  H3       1.0000 0.72844  0.04891  0.17112  Biso   1.000  H
  H4       1.0000 0.70893  0.13701  0.07819  Biso   1.000  H
  H5       1.0000 0.87762  0.19196  0.27581  Biso   1.000  H
  H6       1.0000 0.81093  0.08223  0.28116  Biso   1.000  H
  H7       1.0000 0.84890  0.71015  0.89623  Biso   1.000  H
  H8       1.0000 0.96359  0.75599  0.85240  Biso   1.000  H
  H9       1.0000 0.75681  0.91149  0.81106  Biso   1.000  H
  H10      1.0000 0.73625  0.80874  0.88852  Biso   1.000  H
  H11      1.0000 0.97279  0.85679  0.74677  Biso   1.000  H
  H12      1.0000 0.86274  0.90958  0.70511  Biso   1.000  H
  H13      1.0000 0.15266  0.27715  0.92670  Biso   1.000  H
  H14      1.0000 0.07030  0.26363  0.83245  Biso   1.000  H
  H15      1.0000 0.28830  0.09204  0.84407  Biso   1.000  H
  H16      1.0000 0.25133  0.17146  0.94281  Biso   1.000  H
  H17      1.0000 0.10537  0.17447  0.72117  Biso   1.000  H
  H18      1.0000 0.19201  0.07853  0.74083  Biso   1.000  H
  H19      1.0000 0.18654  0.70023  0.11492  Biso   1.000  H
  H20      1.0000 0.07418  0.73740  0.17736  Biso   1.000  H
  H21      1.0000 0.27572  0.90934  0.17591  Biso   1.000  H
  H22      1.0000 0.28987  0.80190  0.10313  Biso   1.000  H
  H23      1.0000 0.06318  0.85700  0.25706  Biso   1.000  H
  H24      1.0000 0.16935  0.92281  0.28094  Biso   1.000  H
  H25      1.0000 0.06119  0.01963  0.46443  Biso   1.000  H
  H26      1.0000 0.94656  0.08186  0.46755  Biso   1.000  H
  H27      1.0000 0.04997  0.09291  0.51921  Biso   1.000  H
  H28      1.0000 0.95703  0.00606  0.52050  Biso   1.000  H
  H29      1.0000 0.00546  0.04667  0.35410  Biso   1.000  H
  H30      1.0000 0.00938  0.03771  0.63068  Biso   1.000  H
  H31      1.0000 0.04887  0.47288  0.99602  Biso   1.000  H
  H32      1.0000 0.93954  0.47474  0.07094  Biso   1.000  H
  H33      1.0000 0.94419  0.52661  0.99446  Biso   1.000  H
  H34      1.0000 0.04300  0.52898  0.07130  Biso   1.000  H
  H35      1.0000 0.99012  0.36229  0.02547  Biso   1.000  H
  H36      1.0000 0.99331  0.63954  0.02602  Biso   1.000  H
  H37      1.0000 0.52876  0.91236  0.96062  Biso   1.000  H
  H38      1.0000 0.52590  0.02904  0.01556  Biso   1.000  H
  H39      1.0000 0.47005  0.92955  0.03675  Biso   1.000  H
  H40      1.0000 0.47654  0.01729  0.94213  Biso   1.000  H
  H41      1.0000 0.63921  0.96733  0.98823  Biso   1.000  H
  H42      1.0000 0.36158  0.98510  0.99646  Biso   1.000  H
  H43      1.0000 0.87962  0.34770  0.11999  Biso   1.000  H
  H44      1.0000 0.92438  0.34469  0.03558  Biso   1.000  H
  H45      1.0000 0.87573  0.29172  0.04724  Biso   1.000  H
  H46      1.0000 0.91708  0.40956  0.10116  Biso   1.000  H
  H47      1.0000 0.89317  0.65268  0.92993  Biso   1.000  H
  H48      1.0000 0.97764  0.65381  0.96427  Biso   1.000  H
  H49      1.0000 0.96830  0.70343  0.91546  Biso   1.000  H
  H50      1.0000 0.91114  0.59186  0.97388  Biso   1.000  H
  H51      1.0000 0.10892  0.34453  0.94129  Biso   1.000  H
  H52      1.0000 0.01633  0.35009  0.95840  Biso   1.000  H
  H53      1.0000 0.03836  0.30353  0.90438  Biso   1.000  H
  H54      1.0000 0.08379  0.40487  0.98169  Biso   1.000  H
  H55      1.0000 0.04296  0.69968  0.12761  Biso   1.000  H
  H56      1.0000 0.00718  0.65990  0.08413  Biso   1.000  H
  H57      1.0000 0.11951  0.65258  0.09881  Biso   1.000  H
  H58      1.0000 0.07418  0.59532  0.08603  Biso   1.000  H
  H59      1.0000 0.64875  0.08988  0.06212  Biso   1.000  H
  H60      1.0000 0.65006  0.99730  0.05037  Biso   1.000  H
  H61      1.0000 0.69334  0.01965  0.10152  Biso   1.000  H
  H62      1.0000 0.59158  0.06376  0.02414  Biso   1.000  H
  H63      1.0000 0.30526  0.94286  0.11447  Biso   1.000  H
  H64      1.0000 0.34242  0.97561  0.06039  Biso   1.000  H
  H65      1.0000 0.34360  0.86438  0.08072  Biso   1.000  H
  H66      1.0000 0.40316  0.90510  0.06213  Biso   1.000  H
  H67      1.0000 0.66507  0.85020  0.91078  Biso   1.000  H
  H68      1.0000 0.65395  0.94211  0.92467  Biso   1.000  H
  H69      1.0000 0.70393  0.92619  0.87567  Biso   1.000  H
  H70      1.0000 0.59819  0.87400  0.95148  Biso   1.000  H
  H71      1.0000 0.35135  0.07675  0.88873  Biso   1.000  H
  H72      1.0000 0.34744  0.05054  0.97835  Biso   1.000  H
  H73      1.0000 0.29776  0.10201  0.96310  Biso   1.000  H
  H74      1.0000 0.41198  0.03681  0.90974  Biso   1.000  H
  H75      1.0000 0.93190  0.14745  0.30350  Biso   1.000  H
  H76      1.0000 0.98028  0.10799  0.33890  Biso   1.000  H
  H77      1.0000 0.87065  0.08801  0.33871  Biso   1.000  H
  H78      1.0000 0.91151  0.09076  0.40111  Biso   1.000  H
  H79      1.0000 0.10120  0.13771  0.65052  Biso   1.000  H
  H80      1.0000 0.07626  0.04908  0.64240  Biso   1.000  H
  H81      1.0000 0.12543  0.05936  0.69267  Biso   1.000  H
  H82      1.0000 0.06559  0.12252  0.58779  Biso   1.000  H
  H83      1.0000 0.12163  0.95772  0.33871  Biso   1.000  H
  H84      1.0000 0.03120  0.98317  0.34161  Biso   1.000  H
  H85      1.0000 0.04769  0.92886  0.29736  Biso   1.000  H
  H86      1.0000 0.09780  0.00399  0.39722  Biso   1.000  H
  H87      1.0000 0.90913  0.93833  0.64665  Biso   1.000  H
  H88      1.0000 0.99437  0.97374  0.64526  Biso   1.000  H
  H89      1.0000 0.98329  0.92284  0.69554  Biso   1.000  H
  H90      1.0000 0.92697  0.98216  0.58665  Biso   1.000  H
  C1       1.0000 0.81904  0.24643  0.09243  Biso   1.000  C
  C2       1.0000 0.84629  0.27510  0.10411  Biso   1.000  C
  C3       1.0000 0.84703  0.26968  0.14596  Biso   1.000  C
  C4       1.0000 0.72747  0.07505  0.15181  Biso   1.000  C
  C5       1.0000 0.70831  0.08049  0.11561  Biso   1.000  C
  C6       1.0000 0.71685  0.12032  0.10461  Biso   1.000  C
  C7       1.0000 0.85770  0.16736  0.27173  Biso   1.000  C
  C8       1.0000 0.85531  0.13030  0.29201  Biso   1.000  C
  C9       1.0000 0.82321  0.11149  0.27483  Biso   1.000  C
  C10      1.0000 0.87372  0.72538  0.88097  Biso   1.000  C
  C11      1.0000 0.91528  0.72088  0.88569  Biso   1.000  C
  C12      1.0000 0.93227  0.74929  0.85887  Biso   1.000  C
  C13      1.0000 0.75715  0.88284  0.82648  Biso   1.000  C
  C14      1.0000 0.73186  0.86958  0.85889  Biso   1.000  C
  C15      1.0000 0.74616  0.83016  0.86580  Biso   1.000  C
  C16      1.0000 0.94216  0.86560  0.74107  Biso   1.000  C
  C17      1.0000 0.92800  0.89415  0.71373  Biso   1.000  C
  C18      1.0000 0.88590  0.89224  0.71927  Biso   1.000  C
  C19      1.0000 0.13748  0.27003  0.89990  Biso   1.000  C
  C20      1.0000 0.09916  0.28262  0.88861  Biso   1.000  C
  C21      1.0000 0.09503  0.26250  0.85207  Biso   1.000  C
  C22      1.0000 0.27548  0.11536  0.86386  Biso   1.000  C
  C23      1.0000 0.28192  0.12257  0.90454  Biso   1.000  C
  C24      1.0000 0.25600  0.15554  0.91455  Biso   1.000  C
  C25      1.0000 0.12979  0.15521  0.73043  Biso   1.000  C
  C26      1.0000 0.14158  0.11637  0.71711  Biso   1.000  C
  C27      1.0000 0.17357  0.10579  0.74104  Biso   1.000  C
  C28      1.0000 0.16234  0.71439  0.13335  Biso   1.000  C
  C29      1.0000 0.12138  0.70501  0.13714  Biso   1.000  C
  C30      1.0000 0.10477  0.73359  0.16492  Biso   1.000  C
  C31      1.0000 0.27393  0.88021  0.16189  Biso   1.000  C
  C32      1.0000 0.29608  0.86411  0.12811  Biso   1.000  C
  C33      1.0000 0.28148  0.82506  0.12503  Biso   1.000  C
  C34      1.0000 0.09308  0.86849  0.25888  Biso   1.000  C
  C35      1.0000 0.10547  0.90221  0.27980  Biso   1.000  C
  C36      1.0000 0.14739  0.90191  0.27165  Biso   1.000  C
  C37      1.0000 0.03683  0.03333  0.44846  Biso   1.000  C
  C38      1.0000 0.00392  0.05097  0.47057  Biso   1.000  C
  C39      1.0000 0.97184  0.06767  0.45038  Biso   1.000  C
  C40      1.0000 0.97297  0.06800  0.40801  Biso   1.000  C
  C41      1.0000 0.00530  0.04823  0.38668  Biso   1.000  C
  C42      1.0000 0.03710  0.03003  0.40635  Biso   1.000  C
  C43      1.0000 0.00364  0.04956  0.51520  Biso   1.000  C
  C44      1.0000 0.03068  0.07203  0.53583  Biso   1.000  C
  C45      1.0000 0.03345  0.06765  0.57765  Biso   1.000  C
  C46      1.0000 0.00861  0.04004  0.59819  Biso   1.000  C
  C47      1.0000 0.98085  0.01749  0.57827  Biso   1.000  C
  C48      1.0000 0.97812  0.02334  0.53663  Biso   1.000  C
  C49      1.0000 0.02436  0.45684  0.01123  Biso   1.000  C
  C50      1.0000 0.99394  0.47854  0.03314  Biso   1.000  C
  C51      1.0000 0.96262  0.45790  0.05311  Biso   1.000  C
  C52      1.0000 0.96056  0.41578  0.05050  Biso   1.000  C
  C53      1.0000 0.99043  0.39490  0.02668  Biso   1.000  C
  C54      1.0000 0.02249  0.41486  0.00688  Biso   1.000  C
  C55      1.0000 0.99369  0.52322  0.03297  Biso   1.000  C
  C56      1.0000 0.96532  0.54375  0.01067  Biso   1.000  C
  C57      1.0000 0.96571  0.58585  0.00668  Biso   1.000  C
  C58      1.0000 0.99321  0.60698  0.02821  Biso   1.000  C
  C59      1.0000 0.02057  0.58733  0.05255  Biso   1.000  C
  C60      1.0000 0.02151  0.54495  0.05337  Biso   1.000  C
  C61      1.0000 0.54459  0.93715  0.97305  Biso   1.000  C
  C62      1.0000 0.52269  0.97080  0.98830  Biso   1.000  C
  C63      1.0000 0.54313  0.00325  0.00326  Biso   1.000  C
  C64      1.0000 0.58521  0.00175  0.00507  Biso   1.000  C
  C65      1.0000 0.60660  0.96840  0.98820  Biso   1.000  C
  C66      1.0000 0.58697  0.93641  0.97109  Biso   1.000  C
  C67      1.0000 0.47799  0.97321  0.98936  Biso   1.000  C
  C68      1.0000 0.45499  0.95045  0.01711  Biso   1.000  C
  C69      1.0000 0.41283  0.95553  0.02118  Biso   1.000  C
  C70      1.0000 0.39420  0.98276  0.99541  Biso   1.000  C
  C71      1.0000 0.41645  0.00523  0.96665  Biso   1.000  C
  C72      1.0000 0.45862  0.00006  0.96403  Biso   1.000  C
  C73      1.0000 0.87004  0.30152  0.07830  Biso   1.000  C
  C74      1.0000 0.88665  0.33624  0.08970  Biso   1.000  C
  C75      1.0000 0.91434  0.35853  0.06418  Biso   1.000  C
  C76      1.0000 0.92910  0.39470  0.07373  Biso   1.000  C
  C77      1.0000 0.93721  0.69531  0.91217  Biso   1.000  C
  C78      1.0000 0.92356  0.66289  0.93325  Biso   1.000  C
  C79      1.0000 0.94837  0.64114  0.96006  Biso   1.000  C
  C80      1.0000 0.93911  0.60642  0.97956  Biso   1.000  C
  C81      1.0000 0.06969  0.30846  0.91014  Biso   1.000  C
  C82      1.0000 0.07775  0.33756  0.93681  Biso   1.000  C
  C83      1.0000 0.04706  0.36015  0.95982  Biso   1.000  C
  C84      1.0000 0.05363  0.39298  0.98238  Biso   1.000  C
  C85      1.0000 0.10083  0.67503  0.11536  Biso   1.000  C
  C86      1.0000 0.06029  0.67512  0.11282  Biso   1.000  C
  C87      1.0000 0.03694  0.64807  0.09049  Biso   1.000  C
  C88      1.0000 0.04662  0.61028  0.07720  Biso   1.000  C
  C89      1.0000 0.68628  0.05099  0.09468  Biso   1.000  C
  C90      1.0000 0.65788  0.05884  0.06789  Biso   1.000  C
  C91      1.0000 0.63816  0.02787  0.04711  Biso   1.000  C
  C92      1.0000 0.60536  0.03376  0.02530  Biso   1.000  C
  C93      1.0000 0.32459  0.88373  0.10065  Biso   1.000  C
  C94      1.0000 0.32687  0.92423  0.09652  Biso   1.000  C
  C95      1.0000 0.35321  0.94563  0.06842  Biso   1.000  C
  C96      1.0000 0.38951  0.93302  0.05170  Biso   1.000  C
  C97      1.0000 0.70125  0.89393  0.88045  Biso   1.000  C
  C98      1.0000 0.67052  0.88201  0.90607  Biso   1.000  C
  C99      1.0000 0.64471  0.91102  0.92755  Biso   1.000  C
  C100     1.0000 0.61024  0.90408  0.95003  Biso   1.000  C
  C101     1.0000 0.30705  0.10032  0.93120  Biso   1.000  C
  C102     1.0000 0.34017  0.07731  0.92014  Biso   1.000  C
  C103     1.0000 0.36132  0.05280  0.94798  Biso   1.000  C
  C104     1.0000 0.39666  0.03254  0.93919  Biso   1.000  C
  C105     1.0000 0.88178  0.11323  0.32081  Biso   1.000  C
  C106     1.0000 0.92024  0.12459  0.32421  Biso   1.000  C
  C107     1.0000 0.94895  0.10663  0.35016  Biso   1.000  C
  C108     1.0000 0.94160  0.08883  0.38646  Biso   1.000  C
  C109     1.0000 0.12306  0.09174  0.68807  Biso   1.000  C
  C110     1.0000 0.10199  0.10561  0.65699  Biso   1.000  C
  C111     1.0000 0.07916  0.08019  0.63264  Biso   1.000  C
  C112     1.0000 0.06055  0.09232  0.59937  Biso   1.000  C
  C113     1.0000 0.07952  0.93004  0.30295  Biso   1.000  C
  C114     1.0000 0.09041  0.95669  0.33092  Biso   1.000  C
  C115     1.0000 0.06158  0.98302  0.35203  Biso   1.000  C
  C116     1.0000 0.06840  0.00572  0.38461  Biso   1.000  C
  C117     1.0000 0.95212  0.92013  0.68796  Biso   1.000  C
  C118     1.0000 0.93963  0.94157  0.65602  Biso   1.000  C
  C119     1.0000 0.96497  0.96894  0.63370  Biso   1.000  C
  C120     1.0000 0.95526  0.98865  0.59973  Biso   1.000  C
  N1       1.0000 0.82224  0.24004  0.15814  Biso   1.000  N
  N2       1.0000 0.80454  0.22581  0.12480  Biso   1.000  N
  N3       1.0000 0.73934  0.13713  0.13210  Biso   1.000  N
  N4       1.0000 0.74566  0.10906  0.16170  Biso   1.000  N
  N5       1.0000 0.80819  0.13515  0.24603  Biso   1.000  N
  N6       1.0000 0.82955  0.17007  0.24434  Biso   1.000  N
  N7       1.0000 0.90325  0.76901  0.83965  Biso   1.000  N
  N8       1.0000 0.86671  0.75425  0.85354  Biso   1.000  N
  N9       1.0000 0.77761  0.82090  0.83964  Biso   1.000  N
  N10      1.0000 0.78418  0.85368  0.81492  Biso   1.000  N
  N11      1.0000 0.87595  0.86476  0.74771  Biso   1.000  N
  N12      1.0000 0.91098  0.84802  0.76112  Biso   1.000  N
  N13      1.0000 0.12844  0.24001  0.84225  Biso   1.000  N
  N14      1.0000 0.15472  0.24438  0.87224  Biso   1.000  N
  N15      1.0000 0.23597  0.16718  0.88230  Biso   1.000  N
  N16      1.0000 0.24783  0.14190  0.85082  Biso   1.000  N
  N17      1.0000 0.18041  0.13608  0.76640  Biso   1.000  N
  N18      1.0000 0.15286  0.16673  0.76006  Biso   1.000  N
  N19      1.0000 0.13346  0.75817  0.17625  Biso   1.000  N
  N20      1.0000 0.16939  0.74636  0.15659  Biso   1.000  N
  N21      1.0000 0.25243  0.81867  0.15423  Biso   1.000  N
  N22      1.0000 0.24795  0.85302  0.17730  Biso   1.000  N
  N23      1.0000 0.15888  0.87047  0.24775  Biso   1.000  N
  N24      1.0000 0.12507  0.84953  0.24002  Biso   1.000  N
