data_image0
_cell_length_a       9.69986
_cell_length_b       11.0402
_cell_length_c       10.9696
_cell_angle_alpha    89.0402
_cell_angle_beta     90.003
_cell_angle_gamma    90.0078

_symmetry_space_group_name_H-M    "P 1"
_symmetry_int_tables_number       1

loop_
  _symmetry_equiv_pos_as_xyz
  'x, y, z'

loop_
  _atom_site_label
  _atom_site_occupancy
  _atom_site_fract_x
  _atom_site_fract_y
  _atom_site_fract_z
  _atom_site_thermal_displace_type
  _atom_site_B_iso_or_equiv
  _atom_site_type_symbol
  Zn1      1.0000 0.63797  0.50001  0.50000  Biso   1.000  Zn
  Zn2      1.0000 0.34896  0.50000  0.50000  Biso   1.000  Zn
  H1       1.0000 0.28489  0.88497  0.49443  Biso   1.000  H
  H2       1.0000 0.28488  0.11498  0.50561  Biso   1.000  H
  H3       1.0000 0.26297  0.50659  0.88547  Biso   1.000  H
  H4       1.0000 0.26298  0.49339  0.11452  Biso   1.000  H
  H5       1.0000 0.70486  0.49547  0.11480  Biso   1.000  H
  H6       1.0000 0.70486  0.50454  0.88522  Biso   1.000  H
  H7       1.0000 0.12426  0.37050  0.36505  Biso   1.000  H
  H8       1.0000 0.12434  0.62946  0.63498  Biso   1.000  H
  H9       1.0000 0.86045  0.37012  0.36557  Biso   1.000  H
  H10      1.0000 0.86052  0.62983  0.63450  Biso   1.000  H
  H11      1.0000 0.92892  0.84263  0.18281  Biso   1.000  H
  H12      1.0000 0.92859  0.15727  0.81750  Biso   1.000  H
  C1       1.0000 0.48374  0.51353  0.73584  Biso   1.000  C
  C2       1.0000 0.48375  0.48647  0.26416  Biso   1.000  C
  C3       1.0000 0.50041  0.73874  0.47711  Biso   1.000  C
  C4       1.0000 0.50040  0.26127  0.52289  Biso   1.000  C
  C5       1.0000 0.75769  0.89568  0.42515  Biso   1.000  C
  C6       1.0000 0.75762  0.10440  0.57495  Biso   1.000  C
  C7       1.0000 0.87930  0.95175  0.45806  Biso   1.000  C
  C8       1.0000 0.87926  0.04838  0.54213  Biso   1.000  C
  C9       1.0000 0.63014  0.05994  0.52478  Biso   1.000  C
  C10      1.0000 0.63016  0.94010  0.47525  Biso   1.000  C
  C11      1.0000 0.50248  0.87501  0.47509  Biso   1.000  C
  C12      1.0000 0.50247  0.12500  0.52492  Biso   1.000  C
  C13      1.0000 0.38027  0.93673  0.49341  Biso   1.000  C
  C14      1.0000 0.38026  0.06324  0.50662  Biso   1.000  C
  C15      1.0000 0.35891  0.50384  0.93658  Biso   1.000  C
  C16      1.0000 0.35891  0.49615  0.06341  Biso   1.000  C
  C17      1.0000 0.48393  0.49270  0.12776  Biso   1.000  C
  C18      1.0000 0.48392  0.50730  0.87224  Biso   1.000  C
  C19      1.0000 0.60901  0.49683  0.06346  Biso   1.000  C
  C20      1.0000 0.60901  0.50318  0.93655  Biso   1.000  C
  C21      1.0000 0.06414  0.42774  0.42489  Biso   1.000  C
  C22      1.0000 0.06418  0.57223  0.57514  Biso   1.000  C
  C23      1.0000 0.92060  0.42769  0.42508  Biso   1.000  C
  C24      1.0000 0.92064  0.57227  0.57497  Biso   1.000  C
  S1       1.0000 0.75057  0.79979  0.28935  Biso   1.000  S
  S2       1.0000 0.75041  0.20023  0.71077  Biso   1.000  S
  N1       1.0000 0.85023  0.49998  0.50003  Biso   1.000  N
  N2       1.0000 0.13481  0.49999  0.50001  Biso   1.000  N
  N3       1.0000 0.01312  0.92359  0.40251  Biso   1.000  N
  N4       1.0000 0.01302  0.07661  0.59783  Biso   1.000  N
  O1       1.0000 0.60037  0.51058  0.68240  Biso   1.000  O
  O2       1.0000 0.60038  0.48943  0.31760  Biso   1.000  O
  O3       1.0000 0.36661  0.52067  0.68261  Biso   1.000  O
  O4       1.0000 0.36662  0.47934  0.31739  Biso   1.000  O
  O5       1.0000 0.61762  0.68752  0.48997  Biso   1.000  O
  O6       1.0000 0.61763  0.31250  0.51004  Biso   1.000  O
  O7       1.0000 0.38402  0.68706  0.47372  Biso   1.000  O
  O8       1.0000 0.38402  0.31293  0.52628  Biso   1.000  O
  O9       1.0000 0.82518  0.68715  0.30347  Biso   1.000  O
  O10      1.0000 0.61149  0.80745  0.24406  Biso   1.000  O
  O11      1.0000 0.84278  0.88620  0.19787  Biso   1.000  O
  O12      1.0000 0.82509  0.31287  0.69678  Biso   1.000  O
  O13      1.0000 0.61128  0.19259  0.75595  Biso   1.000  O
  O14      1.0000 0.84245  0.11374  0.80227  Biso   1.000  O
  O15      1.0000 0.05071  0.81653  0.40049  Biso   1.000  O
  O16      1.0000 0.07968  0.01183  0.36197  Biso   1.000  O
  O17      1.0000 0.05073  0.18366  0.59957  Biso   1.000  O
  O18      1.0000 0.07936  0.98845  0.63880  Biso   1.000  O
