data_image0
_cell_length_a       14.546
_cell_length_b       17.9095
_cell_length_c       31.6204
_cell_angle_alpha    100.893
_cell_angle_beta     90.0181
_cell_angle_gamma    113.906

_symmetry_space_group_name_H-M    "P 1"
_symmetry_int_tables_number       1

loop_
  _symmetry_equiv_pos_as_xyz
  'x, y, z'

loop_
  _atom_site_label
  _atom_site_occupancy
  _atom_site_fract_x
  _atom_site_fract_y
  _atom_site_fract_z
  _atom_site_thermal_displace_type
  _atom_site_B_iso_or_equiv
  _atom_site_type_symbol
  C1       1.0000 0.32691  0.97358  0.20130  Biso   1.000  C
  C2       1.0000 0.35336  0.02704  0.79866  Biso   1.000  C
  C3       1.0000 0.30879  0.92211  0.23137  Biso   1.000  C
  C4       1.0000 0.38681  0.07858  0.76864  Biso   1.000  C
  C5       1.0000 0.21083  0.86421  0.23322  Biso   1.000  C
  C6       1.0000 0.34683  0.13660  0.76679  Biso   1.000  C
  C7       1.0000 0.14979  0.90527  0.17777  Biso   1.000  C
  C8       1.0000 0.24456  0.09549  0.82214  Biso   1.000  C
  C9       1.0000 0.24521  0.96504  0.17425  Biso   1.000  C
  C10      1.0000 0.28015  0.03561  0.82566  Biso   1.000  C
  C11      1.0000 0.53483  0.13968  0.16711  Biso   1.000  C
  C12      1.0000 0.39500  0.86072  0.83289  Biso   1.000  C
  C13      1.0000 0.43000  0.03566  0.19779  Biso   1.000  C
  C14      1.0000 0.39428  0.96483  0.80219  Biso   1.000  C
  C15      1.0000 0.59691  0.09889  0.21977  Biso   1.000  C
  C16      1.0000 0.49787  0.90138  0.78026  Biso   1.000  C
  C17      1.0000 0.55010  0.19517  0.13603  Biso   1.000  C
  C18      1.0000 0.35473  0.80528  0.86397  Biso   1.000  C
  C19      1.0000 0.49187  0.16609  0.09630  Biso   1.000  C
  C20      1.0000 0.32527  0.83439  0.90362  Biso   1.000  C
  C21      1.0000 0.50719  0.22062  0.06838  Biso   1.000  C
  C22      1.0000 0.28602  0.77991  0.93155  Biso   1.000  C
  C23      1.0000 0.63053  0.32940  0.11719  Biso   1.000  C
  C24      1.0000 0.30109  0.67111  0.88289  Biso   1.000  C
  C25      1.0000 0.62193  0.27801  0.14622  Biso   1.000  C
  C26      1.0000 0.34394  0.72245  0.85387  Biso   1.000  C
  C27      1.0000 0.68452  0.10495  0.24633  Biso   1.000  C
  C28      1.0000 0.57934  0.89517  0.75371  Biso   1.000  C
  C29      1.0000 0.78210  0.16179  0.24146  Biso   1.000  C
  C30      1.0000 0.61987  0.83809  0.75852  Biso   1.000  C
  C31      1.0000 0.75624  0.06486  0.30193  Biso   1.000  C
  C32      1.0000 0.69113  0.93519  0.69815  Biso   1.000  C
  C33      1.0000 0.86251  0.16850  0.26793  Biso   1.000  C
  C34      1.0000 0.69347  0.83124  0.73205  Biso   1.000  C
  C35      1.0000 0.89149  0.33915  0.45920  Biso   1.000  C
  C36      1.0000 0.55205  0.66080  0.54081  Biso   1.000  C
  C37      1.0000 0.67204  0.05484  0.27682  Biso   1.000  C
  C38      1.0000 0.61706  0.94536  0.72328  Biso   1.000  C
  C39      1.0000 0.98290  0.33041  0.46042  Biso   1.000  C
  C40      1.0000 0.65215  0.66947  0.53957  Biso   1.000  C
  C41      1.0000 0.00121  0.27906  0.42575  Biso   1.000  C
  C42      1.0000 0.72183  0.72083  0.57422  Biso   1.000  C
  C43      1.0000 0.82340  0.29771  0.42235  Biso   1.000  C
  C44      1.0000 0.52548  0.70235  0.57767  Biso   1.000  C
  C45      1.0000 0.84812  0.24850  0.38882  Biso   1.000  C
  C46      1.0000 0.59943  0.75157  0.61116  Biso   1.000  C
  C47      1.0000 0.86674  0.39126  0.49563  Biso   1.000  C
  C48      1.0000 0.47517  0.60869  0.50442  Biso   1.000  C
  C49      1.0000 0.75109  0.43001  0.52980  Biso   1.000  C
  C50      1.0000 0.32076  0.56995  0.47029  Biso   1.000  C
  C51      1.0000 0.91582  0.49539  0.55560  Biso   1.000  C
  C52      1.0000 0.42015  0.50451  0.44447  Biso   1.000  C
  C53      1.0000 0.64548  0.42108  0.53219  Biso   1.000  C
  C54      1.0000 0.22404  0.57885  0.46788  Biso   1.000  C
  C55      1.0000 0.47114  0.35442  0.50441  Biso   1.000  C
  C56      1.0000 0.11619  0.64547  0.49559  Biso   1.000  C
  C57      1.0000 0.56963  0.36218  0.50104  Biso   1.000  C
  C58      1.0000 0.20697  0.63777  0.49899  Biso   1.000  C
  C59      1.0000 0.51892  0.45980  0.56632  Biso   1.000  C
  C60      1.0000 0.05878  0.53998  0.43372  Biso   1.000  C
  C61      1.0000 0.61930  0.47140  0.56516  Biso   1.000  C
  C62      1.0000 0.14763  0.52844  0.43492  Biso   1.000  C
  C63      1.0000 0.05194  0.67225  0.64997  Biso   1.000  C
  C64      1.0000 0.37920  0.32765  0.35007  Biso   1.000  C
  C65      1.0000 0.97579  0.61653  0.61868  Biso   1.000  C
  C66      1.0000 0.35889  0.38343  0.38139  Biso   1.000  C
  C67      1.0000 0.99554  0.55756  0.58867  Biso   1.000  C
  C68      1.0000 0.43765  0.44232  0.41137  Biso   1.000  C
  C69      1.0000 0.15422  0.86469  0.73304  Biso   1.000  C
  C70      1.0000 0.28875  0.13491  0.26692  Biso   1.000  C
  C71      1.0000 0.11422  0.92271  0.73122  Biso   1.000  C
  C72      1.0000 0.19081  0.07693  0.26870  Biso   1.000  C
  C73      1.0000 0.14781  0.97444  0.70128  Biso   1.000  C
  C74      1.0000 0.17263  0.02531  0.29870  Biso   1.000  C
  C75      1.0000 0.09207  0.55816  0.59085  Biso   1.000  C
  C76      1.0000 0.53350  0.44159  0.40913  Biso   1.000  C
  C77      1.0000 0.16428  0.61630  0.62298  Biso   1.000  C
  C78      1.0000 0.54745  0.38338  0.37698  Biso   1.000  C
  C79      1.0000 0.25662  0.90599  0.67776  Biso   1.000  C
  C80      1.0000 0.34971  0.09374  0.32235  Biso   1.000  C
  C81      1.0000 0.22107  0.96593  0.67429  Biso   1.000  C
  C82      1.0000 0.25430  0.03386  0.32578  Biso   1.000  C
  C83      1.0000 0.10699  0.03678  0.69790  Biso   1.000  C
  C84      1.0000 0.06955  0.96303  0.30206  Biso   1.000  C
  C85      1.0000 0.10648  0.14134  0.66753  Biso   1.000  C
  C86      1.0000 0.96460  0.85853  0.33242  Biso   1.000  C
  C87      1.0000 0.00324  0.09999  0.71996  Biso   1.000  C
  C88      1.0000 0.90269  0.89995  0.27999  Biso   1.000  C
  C89      1.0000 0.14704  0.19738  0.63674  Biso   1.000  C
  C90      1.0000 0.94916  0.80249  0.36322  Biso   1.000  C
  C91      1.0000 0.17690  0.16891  0.59704  Biso   1.000  C
  C92      1.0000 0.00732  0.83093  0.40295  Biso   1.000  C
  C93      1.0000 0.21653  0.22399  0.56944  Biso   1.000  C
  C94      1.0000 0.99186  0.77585  0.43057  Biso   1.000  C
  C95      1.0000 0.20105  0.33213  0.61847  Biso   1.000  C
  C96      1.0000 0.86854  0.66773  0.38147  Biso   1.000  C
  C97      1.0000 0.15774  0.28017  0.64718  Biso   1.000  C
  C98      1.0000 0.87723  0.71970  0.35275  Biso   1.000  C
  C99      1.0000 0.92144  0.10578  0.74642  Biso   1.000  C
  C100     1.0000 0.81511  0.89420  0.25352  Biso   1.000  C
  C101     1.0000 0.88379  0.05547  0.77681  Biso   1.000  C
  C102     1.0000 0.82768  0.94442  0.22308  Biso   1.000  C
  C103     1.0000 0.80949  0.06533  0.80188  Biso   1.000  C
  C104     1.0000 0.74348  0.93463  0.19805  Biso   1.000  C
  C105     1.0000 0.80662  0.16907  0.76794  Biso   1.000  C
  C106     1.0000 0.63707  0.83110  0.23208  Biso   1.000  C
  C107     1.0000 0.88049  0.16257  0.74155  Biso   1.000  C
  C108     1.0000 0.71748  0.83754  0.25845  Biso   1.000  C
  C109     1.0000 0.94908  0.34009  0.95878  Biso   1.000  C
  C110     1.0000 0.60890  0.66017  0.04127  Biso   1.000  C
  C111     1.0000 0.97557  0.29885  0.92179  Biso   1.000  C
  C112     1.0000 0.67662  0.70151  0.07825  Biso   1.000  C
  C113     1.0000 0.90145  0.24970  0.88835  Biso   1.000  C
  C114     1.0000 0.65147  0.75054  0.11171  Biso   1.000  C
  C115     1.0000 0.77915  0.28012  0.92556  Biso   1.000  C
  C116     1.0000 0.49857  0.71977  0.07454  Biso   1.000  C
  C117     1.0000 0.84899  0.33139  0.96017  Biso   1.000  C
  C118     1.0000 0.51734  0.66863  0.03992  Biso   1.000  C
  C119     1.0000 0.02599  0.39181  0.99522  Biso   1.000  C
  C120     1.0000 0.63422  0.60853  0.00483  Biso   1.000  C
  C121     1.0000 0.18024  0.42991  0.02931  Biso   1.000  C
  C122     1.0000 0.75041  0.57046  0.97073  Biso   1.000  C
  C123     1.0000 0.08153  0.49595  0.05517  Biso   1.000  C
  C124     1.0000 0.58578  0.50448  0.94483  Biso   1.000  C
  C125     1.0000 0.27650  0.42021  0.03159  Biso   1.000  C
  C126     1.0000 0.85634  0.58018  0.96847  Biso   1.000  C
  C127     1.0000 0.35348  0.47017  0.06439  Biso   1.000  C
  C128     1.0000 0.88345  0.53012  0.93572  Biso   1.000  C
  C129     1.0000 0.44182  0.45777  0.06531  Biso   1.000  C
  C130     1.0000 0.98418  0.54260  0.93481  Biso   1.000  C
  C131     1.0000 0.38269  0.35213  0.00357  Biso   1.000  C
  C132     1.0000 0.03052  0.64846  0.99646  Biso   1.000  C
  C133     1.0000 0.29244  0.36073  0.00042  Biso   1.000  C
  C134     1.0000 0.93167  0.63978  0.99960  Biso   1.000  C
  C135     1.0000 0.06384  0.55789  0.08836  Biso   1.000  C
  C136     1.0000 0.50621  0.44266  0.91160  Biso   1.000  C
  C137     1.0000 0.96785  0.55842  0.09042  Biso   1.000  C
  C138     1.0000 0.40978  0.44231  0.90956  Biso   1.000  C
  C139     1.0000 0.95336  0.61625  0.12262  Biso   1.000  C
  C140     1.0000 0.33747  0.38459  0.87736  Biso   1.000  C
  C141     1.0000 0.12133  0.67197  0.14993  Biso   1.000  C
  C142     1.0000 0.44957  0.32868  0.84999  Biso   1.000  C
  C143     1.0000 0.14219  0.61657  0.11858  Biso   1.000  C
  C144     1.0000 0.52584  0.38397  0.88134  Biso   1.000  C
  Cl1      1.0000 0.23083  0.31226  0.47257  Biso   1.000  Cl
  Cl2      1.0000 0.91799  0.68745  0.52742  Biso   1.000  Cl
  Cl3      1.0000 0.29929  0.50704  0.57301  Biso   1.000  Cl
  Cl4      1.0000 0.79190  0.49278  0.42692  Biso   1.000  Cl
  Cl5      1.0000 0.61619  0.22550  0.81694  Biso   1.000  Cl
  Cl6      1.0000 0.39036  0.77470  0.18316  Biso   1.000  Cl
  Cl7      1.0000 0.61279  0.04279  0.87473  Biso   1.000  Cl
  Cl8      1.0000 0.56930  0.95710  0.12511  Biso   1.000  Cl
  Cl9      1.0000 0.99396  0.70668  0.26219  Biso   1.000  Cl
  Cl10     1.0000 0.28730  0.29421  0.73779  Biso   1.000  Cl
  Cl11     1.0000 0.88119  0.77920  0.16857  Biso   1.000  Cl
  Cl12     1.0000 0.10232  0.22175  0.83142  Biso   1.000  Cl
  Cl13     1.0000 0.57726  0.30660  0.97089  Biso   1.000  Cl
  Cl14     1.0000 0.27064  0.69434  0.02913  Biso   1.000  Cl
  Cl15     1.0000 0.70908  0.50261  0.07043  Biso   1.000  Cl
  Cl16     1.0000 0.20686  0.49808  0.92980  Biso   1.000  Cl
  Cl17     1.0000 0.39918  0.78000  0.66844  Biso   1.000  Cl
  Cl18     1.0000 0.61827  0.21943  0.33152  Biso   1.000  Cl
  Cl19     1.0000 0.21505  0.70790  0.76239  Biso   1.000  Cl
  Cl20     1.0000 0.50610  0.29148  0.23754  Biso   1.000  Cl
  Cl21     1.0000 0.10951  0.22517  0.31712  Biso   1.000  Cl
  Cl22     1.0000 0.88423  0.77469  0.68278  Biso   1.000  Cl
  Cl23     1.0000 0.93059  0.04190  0.37450  Biso   1.000  Cl
  Cl24     1.0000 0.88824  0.95830  0.62574  Biso   1.000  Cl
  H1       1.0000 0.37083  0.92674  0.25233  Biso   1.000  H
  H2       1.0000 0.44429  0.07393  0.74773  Biso   1.000  H
  H3       1.0000 0.19186  0.82224  0.25585  Biso   1.000  H
  H4       1.0000 0.36990  0.17864  0.74419  Biso   1.000  H
  H5       1.0000 0.08346  0.89517  0.15752  Biso   1.000  H
  H6       1.0000 0.18831  0.10564  0.84236  Biso   1.000  H
  H7       1.0000 0.25773  0.00477  0.15085  Biso   1.000  H
  H8       1.0000 0.25285  0.99582  0.84903  Biso   1.000  H
  H9       1.0000 0.43652  0.10167  0.08751  Biso   1.000  H
  H10      1.0000 0.33413  0.89879  0.91234  Biso   1.000  H
  H11      1.0000 0.46646  0.20076  0.03652  Biso   1.000  H
  H12      1.0000 0.26491  0.79979  0.96336  Biso   1.000  H
  H13      1.0000 0.68284  0.39505  0.12378  Biso   1.000  H
  H14      1.0000 0.28790  0.60546  0.87636  Biso   1.000  H
  H15      1.0000 0.66723  0.30207  0.17706  Biso   1.000  H
  H16      1.0000 0.36543  0.69838  0.82309  Biso   1.000  H
  H17      1.0000 0.79345  0.20077  0.21775  Biso   1.000  H
  H18      1.0000 0.59216  0.79905  0.78220  Biso   1.000  H
  H19      1.0000 0.75155  0.02832  0.32643  Biso   1.000  H
  H20      1.0000 0.72305  0.97178  0.67369  Biso   1.000  H
  H21      1.0000 0.93992  0.21250  0.26622  Biso   1.000  H
  H22      1.0000 0.72673  0.78706  0.73371  Biso   1.000  H
  H23      1.0000 0.59716  0.00990  0.28093  Biso   1.000  H
  H24      1.0000 0.58726  0.99048  0.71922  Biso   1.000  H
  H25      1.0000 0.03872  0.36214  0.48804  Biso   1.000  H
  H26      1.0000 0.67619  0.63765  0.51196  Biso   1.000  H
  H27      1.0000 0.07068  0.26985  0.42623  Biso   1.000  H
  H28      1.0000 0.80046  0.72996  0.57372  Biso   1.000  H
  H29      1.0000 0.75282  0.30444  0.41952  Biso   1.000  H
  H30      1.0000 0.44822  0.69570  0.58052  Biso   1.000  H
  H31      1.0000 0.79669  0.21644  0.35979  Biso   1.000  H
  H32      1.0000 0.58013  0.78372  0.64018  Biso   1.000  H
  H33      1.0000 0.40923  0.31066  0.48084  Biso   1.000  H
  H34      1.0000 0.09794  0.68925  0.51913  Biso   1.000  H
  H35      1.0000 0.58847  0.32374  0.47465  Biso   1.000  H
  H36      1.0000 0.26422  0.67630  0.52537  Biso   1.000  H
  H37      1.0000 0.49449  0.49762  0.59094  Biso   1.000  H
  H38      1.0000 0.99659  0.50210  0.40911  Biso   1.000  H
  H39      1.0000 0.67701  0.51867  0.58927  Biso   1.000  H
  H40      1.0000 0.15819  0.48116  0.41083  Biso   1.000  H
  H41      1.0000 0.03839  0.71860  0.67361  Biso   1.000  H
  H42      1.0000 0.31926  0.28134  0.32646  Biso   1.000  H
  H43      1.0000 0.90277  0.61960  0.61756  Biso   1.000  H
  H44      1.0000 0.28287  0.38048  0.38257  Biso   1.000  H
  H45      1.0000 0.13111  0.82260  0.75561  Biso   1.000  H
  H46      1.0000 0.30776  0.17692  0.24430  Biso   1.000  H
  H47      1.0000 0.05668  0.92727  0.75211  Biso   1.000  H
  H48      1.0000 0.12880  0.07233  0.24773  Biso   1.000  H
  H49      1.0000 0.11120  0.51407  0.56810  Biso   1.000  H
  H50      1.0000 0.59674  0.48562  0.43186  Biso   1.000  H
  H51      1.0000 0.24032  0.61914  0.62566  Biso   1.000  H
  H52      1.0000 0.62056  0.38040  0.37425  Biso   1.000  H
  H53      1.0000 0.31290  0.89590  0.65755  Biso   1.000  H
  H54      1.0000 0.41600  0.10384  0.34261  Biso   1.000  H
  H55      1.0000 0.24850  0.00583  0.65098  Biso   1.000  H
  H56      1.0000 0.24178  0.99402  0.34912  Biso   1.000  H
  H57      1.0000 0.16810  0.10456  0.58805  Biso   1.000  H
  H58      1.0000 0.06276  0.89528  0.41197  Biso   1.000  H
  H59      1.0000 0.23794  0.20460  0.53761  Biso   1.000  H
  H60      1.0000 0.03256  0.79522  0.46242  Biso   1.000  H
  H61      1.0000 0.21436  0.39781  0.62532  Biso   1.000  H
  H62      1.0000 0.81627  0.60206  0.37461  Biso   1.000  H
  H63      1.0000 0.13593  0.30375  0.67798  Biso   1.000  H
  H64      1.0000 0.83196  0.69613  0.32192  Biso   1.000  H
  H65      1.0000 0.91385  0.01052  0.78088  Biso   1.000  H
  H66      1.0000 0.90261  0.98923  0.21894  Biso   1.000  H
  H67      1.0000 0.77769  0.02868  0.82633  Biso   1.000  H
  H68      1.0000 0.74823  0.97120  0.17356  Biso   1.000  H
  H69      1.0000 0.77301  0.21299  0.76624  Biso   1.000  H
  H70      1.0000 0.55960  0.78726  0.23383  Biso   1.000  H
  H71      1.0000 0.90811  0.20167  0.71790  Biso   1.000  H
  H72      1.0000 0.70607  0.79848  0.28212  Biso   1.000  H
  H73      1.0000 0.05282  0.30555  0.91881  Biso   1.000  H
  H74      1.0000 0.74732  0.69500  0.08120  Biso   1.000  H
  H75      1.0000 0.92063  0.21770  0.85924  Biso   1.000  H
  H76      1.0000 0.70266  0.78263  0.14080  Biso   1.000  H
  H77      1.0000 0.70048  0.27085  0.92621  Biso   1.000  H
  H78      1.0000 0.42903  0.72887  0.07391  Biso   1.000  H
  H79      1.0000 0.82514  0.36305  0.98792  Biso   1.000  H
  H80      1.0000 0.46186  0.63688  0.01218  Biso   1.000  H
  H81      1.0000 0.34383  0.51781  0.08856  Biso   1.000  H
  H82      1.0000 0.82622  0.48237  0.91159  Biso   1.000  H
  H83      1.0000 0.50442  0.49534  0.08978  Biso   1.000  H
  H84      1.0000 0.00930  0.50499  0.91038  Biso   1.000  H
  H85      1.0000 0.40000  0.30785  0.97996  Biso   1.000  H
  H86      1.0000 0.09205  0.69283  0.02004  Biso   1.000  H
  H87      1.0000 0.23470  0.32246  0.97419  Biso   1.000  H
  H88      1.0000 0.91213  0.67809  0.02581  Biso   1.000  H
  H89      1.0000 0.90493  0.51447  0.06752  Biso   1.000  H
  H90      1.0000 0.39087  0.48629  0.93249  Biso   1.000  H
  H91      1.0000 0.88014  0.61907  0.12522  Biso   1.000  H
  H92      1.0000 0.26148  0.38191  0.87478  Biso   1.000  H
  H93      1.0000 0.18093  0.71813  0.17373  Biso   1.000  H
  H94      1.0000 0.46297  0.28250  0.82616  Biso   1.000  H
  H95      1.0000 0.21830  0.61967  0.11757  Biso   1.000  H
  H96      1.0000 0.59879  0.38074  0.88232  Biso   1.000  H
  N1       1.0000 0.13296  0.85536  0.20665  Biso   1.000  N
  N2       1.0000 0.27773  0.14546  0.79330  Biso   1.000  N
  N3       1.0000 0.44101  0.08156  0.16756  Biso   1.000  N
  N4       1.0000 0.35933  0.91892  0.83240  Biso   1.000  N
  N5       1.0000 0.61553  0.15115  0.19232  Biso   1.000  N
  N6       1.0000 0.46419  0.84913  0.80771  Biso   1.000  N
  N7       1.0000 0.50514  0.04206  0.22491  Biso   1.000  N
  N8       1.0000 0.46301  0.95832  0.77510  Biso   1.000  N
  N9       1.0000 0.57407  0.30131  0.07893  Biso   1.000  N
  N10      1.0000 0.27244  0.69924  0.92107  Biso   1.000  N
  N11      1.0000 0.93499  0.23832  0.39052  Biso   1.000  N
  N12      1.0000 0.69643  0.76167  0.60944  Biso   1.000  N
  N13      1.0000 0.84973  0.12156  0.29800  Biso   1.000  N
  N14      1.0000 0.72771  0.87825  0.70202  Biso   1.000  N
  N15      1.0000 0.76919  0.37793  0.49784  Biso   1.000  N
  N16      1.0000 0.39095  0.62208  0.50221  Biso   1.000  N
  N17      1.0000 0.82113  0.48936  0.55964  Biso   1.000  N
  N18      1.0000 0.33147  0.51055  0.44046  Biso   1.000  N
  N19      1.0000 0.94294  0.44863  0.52386  Biso   1.000  N
  N20      1.0000 0.49400  0.55126  0.47619  Biso   1.000  N
  N21      1.0000 0.44581  0.40172  0.53674  Biso   1.000  N
  N22      1.0000 0.04362  0.59807  0.46328  Biso   1.000  N
  N23      1.0000 0.14463  0.67218  0.65228  Biso   1.000  N
  N24      1.0000 0.47188  0.32759  0.34771  Biso   1.000  N
  N25      1.0000 0.22338  0.85591  0.70654  Biso   1.000  N
  N26      1.0000 0.36659  0.14375  0.29351  Biso   1.000  N
  N27      1.0000 0.03820  0.04307  0.72501  Biso   1.000  N
  N28      1.0000 0.99449  0.95683  0.27495  Biso   1.000  N
  N29      1.0000 0.14208  0.08302  0.66782  Biso   1.000  N
  N30      1.0000 0.05844  0.91675  0.33212  Biso   1.000  N
  N31      1.0000 0.23014  0.30463  0.58026  Biso   1.000  N
  N32      1.0000 0.92495  0.69522  0.41973  Biso   1.000  N
  N33      1.0000 0.03709  0.15260  0.69270  Biso   1.000  N
  N34      1.0000 0.88397  0.84736  0.30727  Biso   1.000  N
  N35      1.0000 0.80442  0.23942  0.89024  Biso   1.000  N
  N36      1.0000 0.56453  0.76059  0.10984  Biso   1.000  N
  N37      1.0000 0.77253  0.12201  0.79796  Biso   1.000  N
  N38      1.0000 0.64992  0.87811  0.20204  Biso   1.000  N
  N39      1.0000 0.00758  0.44945  0.02346  Biso   1.000  N
  N40      1.0000 0.55829  0.55094  0.97657  Biso   1.000  N
  N41      1.0000 0.10974  0.37783  0.99748  Biso   1.000  N
  N42      1.0000 0.73193  0.62253  0.00257  Biso   1.000  N
  N43      1.0000 0.45592  0.39921  0.03568  Biso   1.000  N
  N44      1.0000 0.05675  0.60133  0.96439  Biso   1.000  N
  N45      1.0000 0.17015  0.48972  0.05907  Biso   1.000  N
  N46      1.0000 0.68060  0.51068  0.94094  Biso   1.000  N
  N47      1.0000 0.02855  0.67188  0.15211  Biso   1.000  N
  N48      1.0000 0.35696  0.32891  0.84784  Biso   1.000  N
  Zn1      1.0000 0.29511  0.38527  0.53874  Biso   1.000  Zn
  Zn2      1.0000 0.90931  0.61449  0.46124  Biso   1.000  Zn
  Zn3      1.0000 0.68432  0.15220  0.84461  Biso   1.000  Zn
  Zn4      1.0000 0.53148  0.84789  0.15540  Biso   1.000  Zn
  Zn5      1.0000 0.99532  0.75127  0.20164  Biso   1.000  Zn
  Zn6      1.0000 0.24425  0.24971  0.79836  Biso   1.000  Zn
  Zn7      1.0000 0.58942  0.38122  0.03695  Biso   1.000  Zn
  Zn8      1.0000 0.20823  0.61954  0.96309  Biso   1.000  Zn
  Zn9      1.0000 0.25742  0.75186  0.70164  Biso   1.000  Zn
  Zn10     1.0000 0.50453  0.24763  0.29834  Biso   1.000  Zn
  Zn11     1.0000 0.96814  0.15164  0.34462  Biso   1.000  Zn
  Zn12     1.0000 0.81607  0.84826  0.65539  Biso   1.000  Zn
