data_image0
_cell_length_a       20.8262
_cell_length_b       20.753
_cell_length_c       20.7945
_cell_angle_alpha    89.6087
_cell_angle_beta     90.4983
_cell_angle_gamma    90.3536

_symmetry_space_group_name_H-M    "P 1"
_symmetry_int_tables_number       1

loop_
  _symmetry_equiv_pos_as_xyz
  'x, y, z'

loop_
  _atom_site_label
  _atom_site_occupancy
  _atom_site_fract_x
  _atom_site_fract_y
  _atom_site_fract_z
  _atom_site_thermal_displace_type
  _atom_site_B_iso_or_equiv
  _atom_site_type_symbol
  Zr1      1.0000 0.11987  0.01021  0.00250  Biso   1.000  Zr
  Zr2      1.0000 0.12091  0.49955  0.49155  Biso   1.000  Zr
  Zr3      1.0000 0.62092  0.99220  0.49737  Biso   1.000  Zr
  Zr4      1.0000 0.61964  0.49411  0.00531  Biso   1.000  Zr
  Zr5      1.0000 0.87885  0.99177  0.00350  Biso   1.000  Zr
  Zr6      1.0000 0.87875  0.49438  0.50796  Biso   1.000  Zr
  Zr7      1.0000 0.37994  0.00906  0.49687  Biso   1.000  Zr
  Zr8      1.0000 0.37821  0.50671  0.99353  Biso   1.000  Zr
  Zr9      1.0000 0.00686  0.12276  0.00328  Biso   1.000  Zr
  Zr10     1.0000 0.00266  0.62996  0.50330  Biso   1.000  Zr
  Zr11     1.0000 0.49345  0.12230  0.49512  Biso   1.000  Zr
  Zr12     1.0000 0.49360  0.62120  0.00370  Biso   1.000  Zr
  Zr13     1.0000 0.99134  0.87943  0.00504  Biso   1.000  Zr
  Zr14     1.0000 0.00012  0.39126  0.49984  Biso   1.000  Zr
  Zr15     1.0000 0.50738  0.87920  0.49685  Biso   1.000  Zr
  Zr16     1.0000 0.50435  0.37949  0.99502  Biso   1.000  Zr
  Zr17     1.0000 0.00041  0.00153  0.10957  Biso   1.000  Zr
  Zr18     1.0000 0.99077  0.49601  0.62119  Biso   1.000  Zr
  Zr19     1.0000 0.49917  0.99938  0.62930  Biso   1.000  Zr
  Zr20     1.0000 0.50448  0.50414  0.11975  Biso   1.000  Zr
  Zr21     1.0000 0.99985  0.99864  0.87071  Biso   1.000  Zr
  Zr22     1.0000 0.00814  0.49807  0.37881  Biso   1.000  Zr
  Zr23     1.0000 0.50030  0.00096  0.39053  Biso   1.000  Zr
  Zr24     1.0000 0.49335  0.49680  0.87926  Biso   1.000  Zr
  H1       1.0000 0.28115  0.00176  0.13444  Biso   1.000  H
  H2       1.0000 0.27242  0.50199  0.62906  Biso   1.000  H
  H3       1.0000 0.77359  0.99475  0.63355  Biso   1.000  H
  H4       1.0000 0.78203  0.48669  0.13944  Biso   1.000  H
  H5       1.0000 0.71861  0.00182  0.13504  Biso   1.000  H
  H6       1.0000 0.71354  0.49706  0.63787  Biso   1.000  H
  H7       1.0000 0.22345  0.00996  0.63278  Biso   1.000  H
  H8       1.0000 0.22264  0.51043  0.12892  Biso   1.000  H
  H9       1.0000 0.72453  0.97928  0.86722  Biso   1.000  H
  H10      1.0000 0.72504  0.51603  0.36914  Biso   1.000  H
  H11      1.0000 0.21974  0.99851  0.36491  Biso   1.000  H
  H12      1.0000 0.21562  0.51315  0.86049  Biso   1.000  H
  H13      1.0000 0.27588  0.01297  0.86681  Biso   1.000  H
  H14      1.0000 0.28399  0.49938  0.36046  Biso   1.000  H
  H15      1.0000 0.78250  0.00321  0.36576  Biso   1.000  H
  H16      1.0000 0.77447  0.49116  0.86974  Biso   1.000  H
  H17      1.0000 0.13791  0.28698  0.99145  Biso   1.000  H
  H18      1.0000 0.13825  0.78308  0.51273  Biso   1.000  H
  H19      1.0000 0.63389  0.27605  0.50804  Biso   1.000  H
  H20      1.0000 0.62860  0.77492  0.99311  Biso   1.000  H
  H21      1.0000 0.13037  0.72660  0.97718  Biso   1.000  H
  H22      1.0000 0.13114  0.22476  0.50525  Biso   1.000  H
  H23      1.0000 0.63839  0.71624  0.51859  Biso   1.000  H
  H24      1.0000 0.63696  0.21463  0.98950  Biso   1.000  H
  H25      1.0000 0.85949  0.71620  0.01170  Biso   1.000  H
  H26      1.0000 0.86441  0.21700  0.49375  Biso   1.000  H
  H27      1.0000 0.36866  0.72614  0.49175  Biso   1.000  H
  H28      1.0000 0.36855  0.22517  0.99910  Biso   1.000  H
  H29      1.0000 0.86780  0.27567  0.00530  Biso   1.000  H
  H30      1.0000 0.86828  0.77747  0.49277  Biso   1.000  H
  H31      1.0000 0.36305  0.28407  0.49745  Biso   1.000  H
  H32      1.0000 0.35952  0.78577  0.01369  Biso   1.000  H
  H33      1.0000 0.99353  0.13503  0.27991  Biso   1.000  H
  H34      1.0000 0.95743  0.63720  0.77932  Biso   1.000  H
  H35      1.0000 0.53322  0.13670  0.77450  Biso   1.000  H
  H36      1.0000 0.51270  0.63666  0.28095  Biso   1.000  H
  H37      1.0000 0.98252  0.13429  0.71930  Biso   1.000  H
  H38      1.0000 0.00741  0.63644  0.22534  Biso   1.000  H
  H39      1.0000 0.50792  0.13494  0.21983  Biso   1.000  H
  H40      1.0000 0.51925  0.63570  0.72418  Biso   1.000  H
  H41      1.0000 0.03574  0.85905  0.72991  Biso   1.000  H
  H42      1.0000 0.00531  0.36715  0.21996  Biso   1.000  H
  H43      1.0000 0.48645  0.86782  0.22132  Biso   1.000  H
  H44      1.0000 0.47133  0.36175  0.71879  Biso   1.000  H
  H45      1.0000 0.00499  0.86977  0.27949  Biso   1.000  H
  H46      1.0000 0.01610  0.36376  0.77928  Biso   1.000  H
  H47      1.0000 0.46527  0.86291  0.77489  Biso   1.000  H
  H48      1.0000 0.49947  0.36720  0.27684  Biso   1.000  H
  H49      1.0000 0.01117  0.27757  0.86489  Biso   1.000  H
  H50      1.0000 0.00315  0.78550  0.36732  Biso   1.000  H
  H51      1.0000 0.50218  0.28210  0.36350  Biso   1.000  H
  H52      1.0000 0.46925  0.77881  0.86259  Biso   1.000  H
  H53      1.0000 0.95937  0.72216  0.86522  Biso   1.000  H
  H54      1.0000 0.99344  0.22029  0.36559  Biso   1.000  H
  H55      1.0000 0.50998  0.72186  0.36652  Biso   1.000  H
  H56      1.0000 0.52841  0.22150  0.86040  Biso   1.000  H
  H57      1.0000 0.00938  0.72082  0.13764  Biso   1.000  H
  H58      1.0000 0.98905  0.22056  0.63363  Biso   1.000  H
  H59      1.0000 0.51717  0.72009  0.63662  Biso   1.000  H
  H60      1.0000 0.50543  0.22022  0.13302  Biso   1.000  H
  H61      1.0000 0.00532  0.28220  0.13455  Biso   1.000  H
  H62      1.0000 0.03291  0.77448  0.64390  Biso   1.000  H
  H63      1.0000 0.47476  0.27666  0.63308  Biso   1.000  H
  H64      1.0000 0.48832  0.78246  0.13555  Biso   1.000  H
  H65      1.0000 0.28166  0.13972  0.99455  Biso   1.000  H
  H66      1.0000 0.28342  0.63982  0.48716  Biso   1.000  H
  H67      1.0000 0.77913  0.13083  0.49855  Biso   1.000  H
  H68      1.0000 0.77375  0.62973  0.00924  Biso   1.000  H
  H69      1.0000 0.72238  0.12956  0.98674  Biso   1.000  H
  H70      1.0000 0.72427  0.63068  0.51737  Biso   1.000  H
  H71      1.0000 0.21619  0.13832  0.50434  Biso   1.000  H
  H72      1.0000 0.21519  0.64103  0.98048  Biso   1.000  H
  H73      1.0000 0.71439  0.86146  0.99574  Biso   1.000  H
  H74      1.0000 0.71903  0.36207  0.50288  Biso   1.000  H
  H75      1.0000 0.22336  0.86944  0.51543  Biso   1.000  H
  H76      1.0000 0.22482  0.37239  0.99582  Biso   1.000  H
  H77      1.0000 0.27473  0.87133  0.00985  Biso   1.000  H
  H78      1.0000 0.27810  0.37030  0.49847  Biso   1.000  H
  H79      1.0000 0.78266  0.86289  0.49571  Biso   1.000  H
  H80      1.0000 0.78247  0.36070  0.00886  Biso   1.000  H
  H81      1.0000 0.13523  0.00936  0.71476  Biso   1.000  H
  H82      1.0000 0.13772  0.51317  0.21449  Biso   1.000  H
  H83      1.0000 0.63454  0.00191  0.22101  Biso   1.000  H
  H84      1.0000 0.62835  0.49899  0.72330  Biso   1.000  H
  H85      1.0000 0.13462  0.99902  0.27811  Biso   1.000  H
  H86      1.0000 0.12932  0.51835  0.77515  Biso   1.000  H
  H87      1.0000 0.63516  0.97902  0.78469  Biso   1.000  H
  H88      1.0000 0.63865  0.51286  0.28380  Biso   1.000  H
  H89      1.0000 0.86659  0.00364  0.27979  Biso   1.000  H
  H90      1.0000 0.85966  0.48920  0.78437  Biso   1.000  H
  H91      1.0000 0.36406  0.01446  0.78484  Biso   1.000  H
  H92      1.0000 0.36885  0.49632  0.27480  Biso   1.000  H
  H93      1.0000 0.86302  0.99346  0.71603  Biso   1.000  H
  H94      1.0000 0.86837  0.49060  0.22475  Biso   1.000  H
  H95      1.0000 0.36629  0.00095  0.22125  Biso   1.000  H
  H96      1.0000 0.35868  0.49617  0.71436  Biso   1.000  H
  C1       1.0000 0.26843  0.00109  0.18502  Biso   1.000  C
  C2       1.0000 0.26067  0.50414  0.67983  Biso   1.000  C
  C3       1.0000 0.76374  0.99070  0.68469  Biso   1.000  C
  C4       1.0000 0.77020  0.49323  0.18979  Biso   1.000  C
  C5       1.0000 0.73209  0.00203  0.18566  Biso   1.000  C
  C6       1.0000 0.72605  0.49552  0.68872  Biso   1.000  C
  C7       1.0000 0.23419  0.01099  0.68404  Biso   1.000  C
  C8       1.0000 0.23523  0.50822  0.17972  Biso   1.000  C
  C9       1.0000 0.73442  0.98209  0.81602  Biso   1.000  C
  C10      1.0000 0.73681  0.50962  0.31876  Biso   1.000  C
  C11      1.0000 0.23247  0.99926  0.31433  Biso   1.000  C
  C12      1.0000 0.22736  0.51046  0.80974  Biso   1.000  C
  C13      1.0000 0.26512  0.01272  0.81555  Biso   1.000  C
  C14      1.0000 0.27138  0.50183  0.30968  Biso   1.000  C
  C15      1.0000 0.76905  0.00277  0.31514  Biso   1.000  C
  C16      1.0000 0.76196  0.49211  0.81889  Biso   1.000  C
  C17      1.0000 0.18850  0.27445  0.99285  Biso   1.000  C
  C18      1.0000 0.18872  0.77118  0.50773  Biso   1.000  C
  C19      1.0000 0.68440  0.26360  0.50482  Biso   1.000  C
  C20      1.0000 0.67921  0.76304  0.99758  Biso   1.000  C
  C21      1.0000 0.18059  0.73902  0.98523  Biso   1.000  C
  C22      1.0000 0.18201  0.23668  0.50350  Biso   1.000  C
  C23      1.0000 0.68888  0.72858  0.51330  Biso   1.000  C
  C24      1.0000 0.68758  0.22741  0.99304  Biso   1.000  C
  C25      1.0000 0.80884  0.72810  0.00798  Biso   1.000  C
  C26      1.0000 0.81386  0.22935  0.49692  Biso   1.000  C
  C27      1.0000 0.31808  0.73799  0.49590  Biso   1.000  C
  C28      1.0000 0.31797  0.23767  0.99698  Biso   1.000  C
  C29      1.0000 0.81717  0.26292  0.00199  Biso   1.000  C
  C30      1.0000 0.81795  0.76499  0.49894  Biso   1.000  C
  C31      1.0000 0.31223  0.27203  0.49911  Biso   1.000  C
  C32      1.0000 0.30931  0.77332  0.00562  Biso   1.000  C
  C33      1.0000 0.99629  0.18595  0.26747  Biso   1.000  C
  C34      1.0000 0.97419  0.68591  0.76914  Biso   1.000  C
  C35      1.0000 0.51931  0.18590  0.76307  Biso   1.000  C
  C36      1.0000 0.50689  0.68729  0.26864  Biso   1.000  C
  C37      1.0000 0.99026  0.18455  0.73174  Biso   1.000  C
  C38      1.0000 0.00706  0.68755  0.23644  Biso   1.000  C
  C39      1.0000 0.50614  0.18588  0.23157  Biso   1.000  C
  C40      1.0000 0.50757  0.68554  0.73452  Biso   1.000  C
  C41      1.0000 0.01820  0.81060  0.73999  Biso   1.000  C
  C42      1.0000 0.00283  0.31628  0.23252  Biso   1.000  C
  C43      1.0000 0.49217  0.81712  0.23350  Biso   1.000  C
  C44      1.0000 0.48458  0.31237  0.73024  Biso   1.000  C
  C45      1.0000 0.00560  0.81863  0.26852  Biso   1.000  C
  C46      1.0000 0.00912  0.31339  0.76693  Biso   1.000  C
  C47      1.0000 0.47740  0.81321  0.76442  Biso   1.000  C
  C48      1.0000 0.50155  0.31631  0.26503  Biso   1.000  C
  C49      1.0000 0.00628  0.26582  0.81421  Biso   1.000  C
  C50      1.0000 0.00465  0.77207  0.31694  Biso   1.000  C
  C51      1.0000 0.50292  0.26921  0.31295  Biso   1.000  C
  C52      1.0000 0.47930  0.76662  0.81293  Biso   1.000  C
  C53      1.0000 0.97535  0.73285  0.81664  Biso   1.000  C
  C54      1.0000 0.99623  0.23315  0.31490  Biso   1.000  C
  C55      1.0000 0.50543  0.73433  0.31585  Biso   1.000  C
  C56      1.0000 0.51677  0.23278  0.81053  Biso   1.000  C
  C57      1.0000 0.00806  0.73414  0.18806  Biso   1.000  C
  C58      1.0000 0.99376  0.23219  0.68437  Biso   1.000  C
  C59      1.0000 0.50644  0.73218  0.68614  Biso   1.000  C
  C60      1.0000 0.50487  0.23305  0.18361  Biso   1.000  C
  C61      1.0000 0.00286  0.26920  0.18519  Biso   1.000  C
  C62      1.0000 0.01666  0.76375  0.69236  Biso   1.000  C
  C63      1.0000 0.48656  0.26542  0.68292  Biso   1.000  C
  C64      1.0000 0.49330  0.77001  0.18620  Biso   1.000  C
  C65      1.0000 0.27024  0.19075  0.99457  Biso   1.000  C
  C66      1.0000 0.27089  0.69015  0.49348  Biso   1.000  C
  C67      1.0000 0.76653  0.18157  0.49958  Biso   1.000  C
  C68      1.0000 0.76170  0.68056  0.00668  Biso   1.000  C
  C69      1.0000 0.73490  0.18026  0.99149  Biso   1.000  C
  C70      1.0000 0.73601  0.68158  0.51256  Biso   1.000  C
  C71      1.0000 0.22877  0.18922  0.50298  Biso   1.000  C
  C72      1.0000 0.22770  0.69152  0.98706  Biso   1.000  C
  C73      1.0000 0.72644  0.81064  0.99890  Biso   1.000  C
  C74      1.0000 0.73169  0.31135  0.50202  Biso   1.000  C
  C75      1.0000 0.23587  0.81907  0.50937  Biso   1.000  C
  C76      1.0000 0.23622  0.32137  0.99518  Biso   1.000  C
  C77      1.0000 0.26226  0.82080  0.00356  Biso   1.000  C
  C78      1.0000 0.26553  0.31942  0.49969  Biso   1.000  C
  C79      1.0000 0.77085  0.81200  0.50036  Biso   1.000  C
  C80      1.0000 0.76987  0.31005  0.00389  Biso   1.000  C
  C81      1.0000 0.18544  0.01057  0.72941  Biso   1.000  C
  C82      1.0000 0.18839  0.50964  0.22692  Biso   1.000  C
  C83      1.0000 0.68541  0.00205  0.23333  Biso   1.000  C
  C84      1.0000 0.67907  0.49655  0.73583  Biso   1.000  C
  C85      1.0000 0.18541  0.99956  0.26640  Biso   1.000  C
  C86      1.0000 0.17960  0.51337  0.76253  Biso   1.000  C
  C87      1.0000 0.68518  0.98204  0.77048  Biso   1.000  C
  C88      1.0000 0.68901  0.50783  0.27153  Biso   1.000  C
  C89      1.0000 0.81573  0.00299  0.26747  Biso   1.000  C
  C90      1.0000 0.80893  0.49109  0.77182  Biso   1.000  C
  C91      1.0000 0.31385  0.01347  0.77017  Biso   1.000  C
  C92      1.0000 0.31820  0.50030  0.26245  Biso   1.000  C
  C93      1.0000 0.81301  0.99011  0.73021  Biso   1.000  C
  C94      1.0000 0.81798  0.49531  0.23699  Biso   1.000  C
  C95      1.0000 0.31550  0.00064  0.23295  Biso   1.000  C
  C96      1.0000 0.30840  0.50096  0.72703  Biso   1.000  C
  C97      1.0000 0.14847  0.00665  0.84391  Biso   1.000  C
  C98      1.0000 0.15641  0.50744  0.34269  Biso   1.000  C
  C99      1.0000 0.65337  0.00306  0.35003  Biso   1.000  C
  C100     1.0000 0.64701  0.50068  0.85170  Biso   1.000  C
  C101     1.0000 0.85106  0.99065  0.84450  Biso   1.000  C
  C102     1.0000 0.85323  0.50747  0.35218  Biso   1.000  C
  C103     1.0000 0.34805  0.99827  0.34952  Biso   1.000  C
  C104     1.0000 0.34316  0.50223  0.84306  Biso   1.000  C
  C105     1.0000 0.84773  0.00342  0.15076  Biso   1.000  C
  C106     1.0000 0.84164  0.49643  0.65650  Biso   1.000  C
  C107     1.0000 0.35106  0.00879  0.65590  Biso   1.000  C
  C108     1.0000 0.35010  0.49972  0.14645  Biso   1.000  C
  C109     1.0000 0.15277  0.99973  0.14992  Biso   1.000  C
  C110     1.0000 0.14518  0.51520  0.64625  Biso   1.000  C
  C111     1.0000 0.64686  0.99189  0.65660  Biso   1.000  C
  C112     1.0000 0.65449  0.49903  0.15580  Biso   1.000  C
  C113     1.0000 0.85124  0.14725  0.99231  Biso   1.000  C
  C114     1.0000 0.85055  0.64966  0.50211  Biso   1.000  C
  C115     1.0000 0.34403  0.15669  0.50266  Biso   1.000  C
  C116     1.0000 0.34320  0.65725  0.99831  Biso   1.000  C
  C117     1.0000 0.84217  0.84329  0.00067  Biso   1.000  C
  C118     1.0000 0.84749  0.34653  0.49582  Biso   1.000  C
  C119     1.0000 0.35182  0.85404  0.50842  Biso   1.000  C
  C120     1.0000 0.35165  0.35301  0.00244  Biso   1.000  C
  C121     1.0000 0.14733  0.85582  0.98989  Biso   1.000  C
  C122     1.0000 0.15098  0.35285  0.50424  Biso   1.000  C
  C123     1.0000 0.65594  0.84381  0.50758  Biso   1.000  C
  C124     1.0000 0.65406  0.34344  0.99989  Biso   1.000  C
  C125     1.0000 0.15475  0.15912  0.99142  Biso   1.000  C
  C126     1.0000 0.15553  0.65466  0.50031  Biso   1.000  C
  C127     1.0000 0.65053  0.14673  0.50761  Biso   1.000  C
  C128     1.0000 0.64724  0.64669  0.99534  Biso   1.000  C
  C129     1.0000 0.00679  0.84948  0.15176  Biso   1.000  C
  C130     1.0000 0.00520  0.34851  0.65150  Biso   1.000  C
  C131     1.0000 0.49103  0.84567  0.64850  Biso   1.000  C
  C132     1.0000 0.49854  0.34916  0.14868  Biso   1.000  C
  C133     1.0000 0.00086  0.84455  0.85431  Biso   1.000  C
  C134     1.0000 0.99796  0.34997  0.34797  Biso   1.000  C
  C135     1.0000 0.49596  0.84924  0.34976  Biso   1.000  C
  C136     1.0000 0.49791  0.34652  0.84498  Biso   1.000  C
  C137     1.0000 0.99262  0.15115  0.84822  Biso   1.000  C
  C138     1.0000 0.00206  0.65667  0.35278  Biso   1.000  C
  C139     1.0000 0.50530  0.15359  0.34841  Biso   1.000  C
  C140     1.0000 0.49841  0.65279  0.85065  Biso   1.000  C
  C141     1.0000 0.99814  0.15370  0.15067  Biso   1.000  C
  C142     1.0000 0.99594  0.65031  0.65627  Biso   1.000  C
  C143     1.0000 0.50693  0.15272  0.64758  Biso   1.000  C
  C144     1.0000 0.50106  0.65438  0.15337  Biso   1.000  C
  C145     1.0000 0.20312  0.00036  0.20142  Biso   1.000  C
  C146     1.0000 0.19598  0.51050  0.69724  Biso   1.000  C
  C147     1.0000 0.69969  0.98723  0.70479  Biso   1.000  C
  C148     1.0000 0.70541  0.49984  0.20669  Biso   1.000  C
  C149     1.0000 0.79771  0.00261  0.20221  Biso   1.000  C
  C150     1.0000 0.79118  0.49353  0.70657  Biso   1.000  C
  C151     1.0000 0.29869  0.01191  0.70421  Biso   1.000  C
  C152     1.0000 0.30028  0.50338  0.19730  Biso   1.000  C
  C153     1.0000 0.79843  0.98667  0.79596  Biso   1.000  C
  C154     1.0000 0.80164  0.50374  0.30177  Biso   1.000  C
  C155     1.0000 0.29778  0.99960  0.29793  Biso   1.000  C
  C156     1.0000 0.29208  0.50438  0.79231  Biso   1.000  C
  C157     1.0000 0.20064  0.01072  0.79539  Biso   1.000  C
  C158     1.0000 0.20629  0.50626  0.29209  Biso   1.000  C
  C159     1.0000 0.70342  0.00241  0.29859  Biso   1.000  C
  C160     1.0000 0.69690  0.49556  0.80108  Biso   1.000  C
  C161     1.0000 0.20556  0.20918  0.99279  Biso   1.000  C
  C162     1.0000 0.20584  0.70631  0.49999  Biso   1.000  C
  C163     1.0000 0.70132  0.19819  0.50373  Biso   1.000  C
  C164     1.0000 0.69691  0.69798  0.00076  Biso   1.000  C
  C165     1.0000 0.19745  0.80417  0.99322  Biso   1.000  C
  C166     1.0000 0.20044  0.30178  0.50225  Biso   1.000  C
  C167     1.0000 0.70633  0.79373  0.50714  Biso   1.000  C
  C168     1.0000 0.70467  0.29272  0.99908  Biso   1.000  C
  C169     1.0000 0.79130  0.79314  0.00332  Biso   1.000  C
  C170     1.0000 0.79691  0.29477  0.49824  Biso   1.000  C
  C171     1.0000 0.30098  0.80280  0.50409  Biso   1.000  C
  C172     1.0000 0.30088  0.30292  0.99748  Biso   1.000  C
  C173     1.0000 0.80011  0.19765  0.99561  Biso   1.000  C
  C174     1.0000 0.80051  0.69984  0.50503  Biso   1.000  C
  C175     1.0000 0.29388  0.20691  0.50114  Biso   1.000  C
  C176     1.0000 0.29253  0.70820  0.99712  Biso   1.000  C
  C177     1.0000 0.99938  0.20364  0.20221  Biso   1.000  C
  C178     1.0000 0.99504  0.70108  0.70675  Biso   1.000  C
  C179     1.0000 0.50416  0.20204  0.69907  Biso   1.000  C
  C180     1.0000 0.50059  0.70492  0.20361  Biso   1.000  C
  C181     1.0000 0.99653  0.20117  0.79689  Biso   1.000  C
  C182     1.0000 0.00509  0.70636  0.30109  Biso   1.000  C
  C183     1.0000 0.50487  0.20368  0.29657  Biso   1.000  C
  C184     1.0000 0.49445  0.70255  0.79829  Biso   1.000  C
  C185     1.0000 0.99777  0.79534  0.80246  Biso   1.000  C
  C186     1.0000 0.99929  0.29871  0.29776  Biso   1.000  C
  C187     1.0000 0.49801  0.79940  0.29852  Biso   1.000  C
  C188     1.0000 0.49964  0.29622  0.79426  Biso   1.000  C
  C189     1.0000 0.00699  0.79980  0.20388  Biso   1.000  C
  C190     1.0000 0.00287  0.29685  0.70179  Biso   1.000  C
  C191     1.0000 0.49148  0.79635  0.70079  Biso   1.000  C
  C192     1.0000 0.50230  0.29855  0.20002  Biso   1.000  C
  O1       1.0000 0.17286  0.00027  0.09142  Biso   1.000  O
  O2       1.0000 0.16371  0.51712  0.58792  Biso   1.000  O
  O3       1.0000 0.66085  0.00057  0.59791  Biso   1.000  O
  O4       1.0000 0.67226  0.49447  0.09729  Biso   1.000  O
  O5       1.0000 0.82691  0.00299  0.09207  Biso   1.000  O
  O6       1.0000 0.82358  0.50001  0.59762  Biso   1.000  O
  O7       1.0000 0.33631  0.00283  0.59693  Biso   1.000  O
  O8       1.0000 0.33027  0.50014  0.08819  Biso   1.000  O
  O9       1.0000 0.83660  0.99733  0.90318  Biso   1.000  O
  O10      1.0000 0.83576  0.51139  0.41083  Biso   1.000  O
  O11      1.0000 0.32771  0.99731  0.40793  Biso   1.000  O
  O12      1.0000 0.32538  0.50501  0.90168  Biso   1.000  O
  O13      1.0000 0.16347  0.00272  0.90302  Biso   1.000  O
  O14      1.0000 0.17520  0.50587  0.40129  Biso   1.000  O
  O15      1.0000 0.67419  0.00229  0.40872  Biso   1.000  O
  O16      1.0000 0.66665  0.50255  0.91001  Biso   1.000  O
  O17      1.0000 0.09642  0.17759  0.99182  Biso   1.000  O
  O18      1.0000 0.09732  0.67230  0.51118  Biso   1.000  O
  O19      1.0000 0.59193  0.16441  0.51184  Biso   1.000  O
  O20      1.0000 0.58883  0.66429  0.98848  Biso   1.000  O
  O21      1.0000 0.08848  0.83858  0.98347  Biso   1.000  O
  O22      1.0000 0.09237  0.33605  0.50523  Biso   1.000  O
  O23      1.0000 0.59761  0.82498  0.50561  Biso   1.000  O
  O24      1.0000 0.59536  0.32546  0.99469  Biso   1.000  O
  O25      1.0000 0.90035  0.82467  0.00285  Biso   1.000  O
  O26      1.0000 0.90618  0.33068  0.49470  Biso   1.000  O
  O27      1.0000 0.41024  0.83572  0.51130  Biso   1.000  O
  O28      1.0000 0.40972  0.33380  0.00544  Biso   1.000  O
  O29      1.0000 0.90953  0.16672  0.99137  Biso   1.000  O
  O30      1.0000 0.90872  0.66946  0.49438  Biso   1.000  O
  O31      1.0000 0.40259  0.17514  0.50253  Biso   1.000  O
  O32      1.0000 0.40176  0.67499  0.00536  Biso   1.000  O
  O33      1.0000 0.99696  0.09459  0.16680  Biso   1.000  O
  O34      1.0000 0.98610  0.59228  0.67258  Biso   1.000  O
  O35      1.0000 0.52239  0.09467  0.66389  Biso   1.000  O
  O36      1.0000 0.50508  0.59560  0.17172  Biso   1.000  O
  O37      1.0000 0.98059  0.09260  0.83104  Biso   1.000  O
  O38      1.0000 0.99975  0.59764  0.33716  Biso   1.000  O
  O39      1.0000 0.50565  0.09457  0.33295  Biso   1.000  O
  O40      1.0000 0.50555  0.59415  0.83344  Biso   1.000  O
  O41      1.0000 0.01962  0.90200  0.83877  Biso   1.000  O
  O42      1.0000 0.99733  0.40875  0.32725  Biso   1.000  O
  O43      1.0000 0.49475  0.90820  0.33335  Biso   1.000  O
  O44      1.0000 0.49181  0.40519  0.82703  Biso   1.000  O
  O45      1.0000 0.00567  0.90842  0.16727  Biso   1.000  O
  O46      1.0000 0.00814  0.40694  0.67215  Biso   1.000  O
  O47      1.0000 0.47504  0.90388  0.66317  Biso   1.000  O
  O48      1.0000 0.49452  0.40785  0.16673  Biso   1.000  O
  O49      1.0000 0.00012  0.16867  0.90603  Biso   1.000  O
  O50      1.0000 0.00045  0.67725  0.41101  Biso   1.000  O
  O51      1.0000 0.50593  0.17457  0.40676  Biso   1.000  O
  O52      1.0000 0.49648  0.67289  0.90842  Biso   1.000  O
  O53      1.0000 0.98613  0.82729  0.91077  Biso   1.000  O
  O54      1.0000 0.99645  0.33342  0.40682  Biso   1.000  O
  O55      1.0000 0.49468  0.82791  0.40810  Biso   1.000  O
  O56      1.0000 0.50281  0.32777  0.90342  Biso   1.000  O
  O57      1.0000 0.00820  0.82820  0.09367  Biso   1.000  O
  O58      1.0000 0.00452  0.33228  0.59287  Biso   1.000  O
  O59      1.0000 0.50555  0.82812  0.59233  Biso   1.000  O
  O60      1.0000 0.49741  0.33012  0.09036  Biso   1.000  O
  O61      1.0000 0.99723  0.17481  0.09211  Biso   1.000  O
  O62      1.0000 0.00827  0.66940  0.59845  Biso   1.000  O
  O63      1.0000 0.49490  0.17065  0.59049  Biso   1.000  O
  O64      1.0000 0.49722  0.67261  0.09457  Biso   1.000  O
  O65      1.0000 0.17239  0.10025  0.98913  Biso   1.000  O
  O66      1.0000 0.17217  0.59682  0.49142  Biso   1.000  O
  O67      1.0000 0.66915  0.08816  0.50812  Biso   1.000  O
  O68      1.0000 0.66682  0.58861  0.99529  Biso   1.000  O
  O69      1.0000 0.83328  0.08835  0.98886  Biso   1.000  O
  O70      1.0000 0.83344  0.59116  0.50583  Biso   1.000  O
  O71      1.0000 0.32559  0.09776  0.50559  Biso   1.000  O
  O72      1.0000 0.32509  0.59857  0.99202  Biso   1.000  O
  O73      1.0000 0.82469  0.90210  0.99440  Biso   1.000  O
  O74      1.0000 0.82709  0.40525  0.49439  Biso   1.000  O
  O75      1.0000 0.33353  0.91259  0.51095  Biso   1.000  O
  O76      1.0000 0.33332  0.41148  0.00571  Biso   1.000  O
  O77      1.0000 0.16683  0.91416  0.99185  Biso   1.000  O
  O78      1.0000 0.17206  0.41131  0.50576  Biso   1.000  O
  O79      1.0000 0.67429  0.90269  0.51080  Biso   1.000  O
  O80      1.0000 0.67215  0.40219  0.00547  Biso   1.000  O
  O81      1.0000 0.09040  0.00587  0.82204  Biso   1.000  O
  O82      1.0000 0.09746  0.51098  0.32489  Biso   1.000  O
  O83      1.0000 0.59455  0.00533  0.33349  Biso   1.000  O
  O84      1.0000 0.58857  0.50528  0.83292  Biso   1.000  O
  O85      1.0000 0.09421  0.99757  0.16633  Biso   1.000  O
  O86      1.0000 0.08666  0.51914  0.66383  Biso   1.000  O
  O87      1.0000 0.58926  0.98859  0.67844  Biso   1.000  O
  O88      1.0000 0.59595  0.50324  0.17333  Biso   1.000  O
  O89      1.0000 0.90659  0.00541  0.16709  Biso   1.000  O
  O90      1.0000 0.90020  0.49720  0.67533  Biso   1.000  O
  O91      1.0000 0.40904  0.01079  0.67798  Biso   1.000  O
  O92      1.0000 0.40861  0.49430  0.16481  Biso   1.000  O
  O93      1.0000 0.90870  0.98883  0.82272  Biso   1.000  O
  O94      1.0000 0.91132  0.50839  0.33312  Biso   1.000  O
  O95      1.0000 0.40666  0.99716  0.33329  Biso   1.000  O
  O96      1.0000 0.40162  0.49790  0.82524  Biso   1.000  O
  O97      1.0000 0.06653  0.44004  0.43334  Biso   1.000  O
  O98      1.0000 0.56653  0.93389  0.43859  Biso   1.000  O
  O99      1.0000 0.55731  0.45244  0.94104  Biso   1.000  O
  O100     1.0000 0.43433  0.06738  0.43744  Biso   1.000  O
  O101     1.0000 0.44984  0.56074  0.93936  Biso   1.000  O
  O102     1.0000 0.93369  0.93415  0.06319  Biso   1.000  O
  O103     1.0000 0.93358  0.43604  0.56624  Biso   1.000  O
  O104     1.0000 0.06643  0.06868  0.06109  Biso   1.000  O
  O105     1.0000 0.55786  0.55835  0.04694  Biso   1.000  O
  O106     1.0000 0.94741  0.05292  0.03881  Biso   1.000  O
  O107     1.0000 0.95460  0.55717  0.54679  Biso   1.000  O
  O108     1.0000 0.45547  0.04738  0.55758  Biso   1.000  O
  O109     1.0000 0.44088  0.54834  0.05737  Biso   1.000  O
  O110     1.0000 0.05214  0.94936  0.03947  Biso   1.000  O
  O111     1.0000 0.05211  0.46208  0.55234  Biso   1.000  O
  O112     1.0000 0.54441  0.95291  0.55832  Biso   1.000  O
  O113     1.0000 0.54750  0.44051  0.05889  Biso   1.000  O
  O114     1.0000 0.95413  0.95301  0.94297  Biso   1.000  O
  O115     1.0000 0.94806  0.46162  0.44765  Biso   1.000  O
  O116     1.0000 0.44769  0.94860  0.46082  Biso   1.000  O
  O117     1.0000 0.44051  0.44277  0.95203  Biso   1.000  O
  O118     1.0000 0.04402  0.04753  0.94131  Biso   1.000  O
  O119     1.0000 0.04671  0.55995  0.45524  Biso   1.000  O
  O120     1.0000 0.55296  0.05276  0.46104  Biso   1.000  O
