data_image0
_cell_length_a       12.8618
_cell_length_b       13.5195
_cell_length_c       15.226
_cell_angle_alpha    111.431
_cell_angle_beta     99.6643
_cell_angle_gamma    110.113

_symmetry_space_group_name_H-M    "P 1"
_symmetry_int_tables_number       1

loop_
  _symmetry_equiv_pos_as_xyz
  'x, y, z'

loop_
  _atom_site_label
  _atom_site_occupancy
  _atom_site_fract_x
  _atom_site_fract_y
  _atom_site_fract_z
  _atom_site_thermal_displace_type
  _atom_site_B_iso_or_equiv
  _atom_site_type_symbol
  La1      1.0000 0.31601  0.35944  0.57687  Biso   1.000  La
  La2      1.0000 0.09518  0.10975  0.65432  Biso   1.000  La
  La3      1.0000 0.68399  0.64056  0.42313  Biso   1.000  La
  La4      1.0000 0.90482  0.89025  0.34568  Biso   1.000  La
  P1       1.0000 0.98131  0.17413  0.44285  Biso   1.000  P
  P2       1.0000 0.41353  0.21940  0.72679  Biso   1.000  P
  P3       1.0000 0.21736  0.07995  0.43374  Biso   1.000  P
  P4       1.0000 0.38399  0.40643  0.36645  Biso   1.000  P
  P5       1.0000 0.82217  0.80811  0.07059  Biso   1.000  P
  P6       1.0000 0.01869  0.82587  0.55715  Biso   1.000  P
  P7       1.0000 0.58647  0.78060  0.27321  Biso   1.000  P
  P8       1.0000 0.78264  0.92005  0.56626  Biso   1.000  P
  P9       1.0000 0.61601  0.59357  0.63355  Biso   1.000  P
  P10      1.0000 0.17783  0.19189  0.92941  Biso   1.000  P
  H1       1.0000 0.06913  0.42043  0.55053  Biso   1.000  H
  H2       1.0000 0.40670  0.32799  0.93793  Biso   1.000  H
  H3       1.0000 0.40559  0.05957  0.56894  Biso   1.000  H
  H4       1.0000 0.14404  0.22892  0.07723  Biso   1.000  H
  H5       1.0000 0.96527  0.07534  0.24203  Biso   1.000  H
  H6       1.0000 0.00036  0.42569  0.86218  Biso   1.000  H
  H7       1.0000 0.04914  0.63414  0.98402  Biso   1.000  H
  H8       1.0000 0.21087  0.80286  0.98656  Biso   1.000  H
  H9       1.0000 0.31568  0.76624  0.86325  Biso   1.000  H
  H10      1.0000 0.90632  0.27450  0.56645  Biso   1.000  H
  H11      1.0000 0.81947  0.23623  0.44267  Biso   1.000  H
  H12      1.0000 0.85091  0.45570  0.53212  Biso   1.000  H
  H13      1.0000 0.95154  0.47972  0.64349  Biso   1.000  H
  H14      1.0000 0.00518  0.33180  0.37155  Biso   1.000  H
  H15      1.0000 0.88471  0.37101  0.37196  Biso   1.000  H
  H16      1.0000 0.60611  0.36018  0.85552  Biso   1.000  H
  H17      1.0000 0.53152  0.24313  0.88345  Biso   1.000  H
  H18      1.0000 0.59585  0.39558  0.05530  Biso   1.000  H
  H19      1.0000 0.65856  0.50735  0.01792  Biso   1.000  H
  H20      1.0000 0.53031  0.51542  0.88009  Biso   1.000  H
  H21      1.0000 0.37986  0.41047  0.82436  Biso   1.000  H
  H22      1.0000 0.25342  0.91343  0.34354  Biso   1.000  H
  H23      1.0000 0.20183  0.90475  0.44263  Biso   1.000  H
  H24      1.0000 0.46212  0.01421  0.37528  Biso   1.000  H
  H25      1.0000 0.46432  0.14837  0.46126  Biso   1.000  H
  H26      1.0000 0.33576  0.84762  0.50634  Biso   1.000  H
  H27      1.0000 0.38582  0.83646  0.40165  Biso   1.000  H
  H28      1.0000 0.35296  0.33485  0.19035  Biso   1.000  H
  H29      1.0000 0.28515  0.42856  0.23019  Biso   1.000  H
  H30      1.0000 0.25043  0.12743  0.17901  Biso   1.000  H
  H31      1.0000 0.20183  0.16866  0.28307  Biso   1.000  H
  H32      1.0000 0.11286  0.29792  0.30677  Biso   1.000  H
  H33      1.0000 0.08927  0.35429  0.21920  Biso   1.000  H
  H34      1.0000 0.95058  0.15623  0.08541  Biso   1.000  H
  H35      1.0000 0.90109  0.19014  0.19050  Biso   1.000  H
  H36      1.0000 0.06391  0.96680  0.16168  Biso   1.000  H
  H37      1.0000 0.04531  0.00692  0.06271  Biso   1.000  H
  H38      1.0000 0.78201  0.97708  0.13963  Biso   1.000  H
  H39      1.0000 0.81959  0.96630  0.02980  Biso   1.000  H
  H40      1.0000 0.39138  0.25509  0.38042  Biso   1.000  H
  H41      1.0000 0.93087  0.57957  0.44947  Biso   1.000  H
  H42      1.0000 0.59330  0.67201  0.06207  Biso   1.000  H
  H43      1.0000 0.59441  0.94043  0.43106  Biso   1.000  H
  H44      1.0000 0.85596  0.77108  0.92277  Biso   1.000  H
  H45      1.0000 0.03473  0.92466  0.75797  Biso   1.000  H
  H46      1.0000 0.99964  0.57431  0.13782  Biso   1.000  H
  H47      1.0000 0.95086  0.36586  0.01598  Biso   1.000  H
  H48      1.0000 0.78913  0.19714  0.01344  Biso   1.000  H
  H49      1.0000 0.68432  0.23376  0.13675  Biso   1.000  H
  H50      1.0000 0.09368  0.72550  0.43355  Biso   1.000  H
  H51      1.0000 0.18053  0.76377  0.55733  Biso   1.000  H
  H52      1.0000 0.14909  0.54430  0.46788  Biso   1.000  H
  H53      1.0000 0.04846  0.52028  0.35651  Biso   1.000  H
  H54      1.0000 0.99482  0.66820  0.62845  Biso   1.000  H
  H55      1.0000 0.11529  0.62899  0.62804  Biso   1.000  H
  H56      1.0000 0.39389  0.63982  0.14448  Biso   1.000  H
  H57      1.0000 0.46848  0.75687  0.11655  Biso   1.000  H
  H58      1.0000 0.40415  0.60442  0.94470  Biso   1.000  H
  H59      1.0000 0.34144  0.49265  0.98208  Biso   1.000  H
  H60      1.0000 0.46969  0.48458  0.11991  Biso   1.000  H
  H61      1.0000 0.62014  0.58953  0.17564  Biso   1.000  H
  H62      1.0000 0.74658  0.08657  0.65646  Biso   1.000  H
  H63      1.0000 0.79817  0.09525  0.55737  Biso   1.000  H
  H64      1.0000 0.53788  0.98579  0.62472  Biso   1.000  H
  H65      1.0000 0.53568  0.85163  0.53874  Biso   1.000  H
  H66      1.0000 0.66424  0.15238  0.49366  Biso   1.000  H
  H67      1.0000 0.61418  0.16354  0.59835  Biso   1.000  H
  H68      1.0000 0.64704  0.66515  0.80965  Biso   1.000  H
  H69      1.0000 0.71485  0.57144  0.76981  Biso   1.000  H
  H70      1.0000 0.74957  0.87257  0.82099  Biso   1.000  H
  H71      1.0000 0.79817  0.83134  0.71693  Biso   1.000  H
  H72      1.0000 0.88714  0.70208  0.69323  Biso   1.000  H
  H73      1.0000 0.91073  0.64571  0.78080  Biso   1.000  H
  H74      1.0000 0.04942  0.84377  0.91459  Biso   1.000  H
  H75      1.0000 0.09891  0.80986  0.80950  Biso   1.000  H
  H76      1.0000 0.93609  0.03320  0.83832  Biso   1.000  H
  H77      1.0000 0.95469  0.99308  0.93729  Biso   1.000  H
  H78      1.0000 0.21799  0.02292  0.86037  Biso   1.000  H
  H79      1.0000 0.18041  0.03370  0.97020  Biso   1.000  H
  H80      1.0000 0.60862  0.74491  0.61958  Biso   1.000  H
  C1       1.0000 0.27788  0.55179  0.71839  Biso   1.000  C
  C2       1.0000 0.10252  0.35430  0.72910  Biso   1.000  C
  C3       1.0000 0.21670  0.57648  0.79402  Biso   1.000  C
  C4       1.0000 0.12873  0.48023  0.79532  Biso   1.000  C
  C5       1.0000 0.06821  0.50184  0.86335  Biso   1.000  C
  C6       1.0000 0.09648  0.61756  0.93152  Biso   1.000  C
  C7       1.0000 0.18677  0.71264  0.93221  Biso   1.000  C
  C8       1.0000 0.24596  0.69239  0.86328  Biso   1.000  C
  C9       1.0000 0.90839  0.26939  0.49322  Biso   1.000  C
  C10      1.0000 0.94302  0.48142  0.57119  Biso   1.000  C
  C11      1.0000 0.97608  0.39631  0.41213  Biso   1.000  C
  C12      1.0000 0.52079  0.30427  0.85539  Biso   1.000  C
  C13      1.0000 0.57925  0.45572  0.02870  Biso   1.000  C
  C14      1.0000 0.45421  0.46433  0.89446  Biso   1.000  C
  C15      1.0000 0.26455  0.96378  0.42247  Biso   1.000  C
  C16      1.0000 0.47671  0.06986  0.45394  Biso   1.000  C
  C17      1.0000 0.40135  0.89419  0.48005  Biso   1.000  C
  C18      1.0000 0.29771  0.35440  0.23558  Biso   1.000  C
  C19      1.0000 0.18131  0.14750  0.20344  Biso   1.000  C
  C20      1.0000 0.09049  0.27698  0.22700  Biso   1.000  C
  C21      1.0000 0.97008  0.17292  0.16382  Biso   1.000  C
  C22      1.0000 0.06413  0.03808  0.14338  Biso   1.000  C
  C23      1.0000 0.84289  0.96081  0.10003  Biso   1.000  C
  C24      1.0000 0.72212  0.44821  0.28161  Biso   1.000  C
  C25      1.0000 0.89748  0.64570  0.27090  Biso   1.000  C
  C26      1.0000 0.78330  0.42352  0.20598  Biso   1.000  C
  C27      1.0000 0.87127  0.51977  0.20468  Biso   1.000  C
  C28      1.0000 0.93179  0.49816  0.13665  Biso   1.000  C
  C29      1.0000 0.90352  0.38244  0.06848  Biso   1.000  C
  C30      1.0000 0.81323  0.28736  0.06779  Biso   1.000  C
  C31      1.0000 0.75404  0.30761  0.13672  Biso   1.000  C
  C32      1.0000 0.09161  0.73061  0.50678  Biso   1.000  C
  C33      1.0000 0.05698  0.51858  0.42881  Biso   1.000  C
  C34      1.0000 0.02392  0.60369  0.58787  Biso   1.000  C
  C35      1.0000 0.47921  0.69573  0.14461  Biso   1.000  C
  C36      1.0000 0.42075  0.54428  0.97130  Biso   1.000  C
  C37      1.0000 0.54579  0.53567  0.10554  Biso   1.000  C
  C38      1.0000 0.73545  0.03622  0.57753  Biso   1.000  C
  C39      1.0000 0.52329  0.93014  0.54606  Biso   1.000  C
  C40      1.0000 0.59865  0.10581  0.51995  Biso   1.000  C
  C41      1.0000 0.70229  0.64560  0.76442  Biso   1.000  C
  C42      1.0000 0.81869  0.85250  0.79656  Biso   1.000  C
  C43      1.0000 0.90951  0.72302  0.77300  Biso   1.000  C
  C44      1.0000 0.02992  0.82708  0.83618  Biso   1.000  C
  C45      1.0000 0.93587  0.96192  0.85662  Biso   1.000  C
  C46      1.0000 0.15711  0.03919  0.89997  Biso   1.000  C
  N1       1.0000 0.97986  0.39286  0.50996  Biso   1.000  N
  N2       1.0000 0.48361  0.38291  0.92843  Biso   1.000  N
  N3       1.0000 0.38571  0.00073  0.48554  Biso   1.000  N
  N4       1.0000 0.18066  0.24989  0.18891  Biso   1.000  N
  N5       1.0000 0.96330  0.06114  0.16684  Biso   1.000  N
  N6       1.0000 0.02014  0.60714  0.49004  Biso   1.000  N
  N7       1.0000 0.51639  0.61709  0.07156  Biso   1.000  N
  N8       1.0000 0.61429  0.99927  0.51446  Biso   1.000  N
  N9       1.0000 0.81934  0.75011  0.81109  Biso   1.000  N
  N10      1.0000 0.03670  0.93886  0.83316  Biso   1.000  N
  O1       1.0000 0.21697  0.51020  0.62548  Biso   1.000  O
  O2       1.0000 0.38168  0.56568  0.74696  Biso   1.000  O
  O3       1.0000 0.18539  0.33440  0.69963  Biso   1.000  O
  O4       1.0000 0.00317  0.27223  0.70739  Biso   1.000  O
  O5       1.0000 0.96658  0.09586  0.49688  Biso   1.000  O
  O6       1.0000 0.10509  0.26603  0.46788  Biso   1.000  O
  O7       1.0000 0.91266  0.09296  0.33032  Biso   1.000  O
  O8       1.0000 0.42716  0.31086  0.68717  Biso   1.000  O
  O9       1.0000 0.45364  0.12570  0.67331  Biso   1.000  O
  O10      1.0000 0.29583  0.16869  0.74313  Biso   1.000  O
  O11      1.0000 0.20865  0.13369  0.53909  Biso   1.000  O
  O12      1.0000 0.31285  0.18220  0.42790  Biso   1.000  O
  O13      1.0000 0.10107  0.01085  0.34711  Biso   1.000  O
  O14      1.0000 0.30300  0.40164  0.42877  Biso   1.000  O
  O15      1.0000 0.43701  0.31290  0.35841  Biso   1.000  O
  O16      1.0000 0.48259  0.52608  0.39598  Biso   1.000  O
  O17      1.0000 0.69091  0.73128  0.01940  Biso   1.000  O
  O18      1.0000 0.89226  0.78054  0.99449  Biso   1.000  O
  O19      1.0000 0.88671  0.81303  0.16598  Biso   1.000  O
  O20      1.0000 0.78303  0.48980  0.37452  Biso   1.000  O
  O21      1.0000 0.61832  0.43432  0.25304  Biso   1.000  O
  O22      1.0000 0.81461  0.66560  0.30037  Biso   1.000  O
  O23      1.0000 0.99683  0.72777  0.29261  Biso   1.000  O
  O24      1.0000 0.03342  0.90414  0.50312  Biso   1.000  O
  O25      1.0000 0.89491  0.73397  0.53212  Biso   1.000  O
  O26      1.0000 0.08734  0.90704  0.66968  Biso   1.000  O
  O27      1.0000 0.57284  0.68914  0.31283  Biso   1.000  O
  O28      1.0000 0.54636  0.87430  0.32669  Biso   1.000  O
  O29      1.0000 0.70417  0.83131  0.25687  Biso   1.000  O
  O30      1.0000 0.79135  0.86631  0.46091  Biso   1.000  O
  O31      1.0000 0.68715  0.81780  0.57210  Biso   1.000  O
  O32      1.0000 0.89893  0.98915  0.65289  Biso   1.000  O
  O33      1.0000 0.69700  0.59836  0.57123  Biso   1.000  O
  O34      1.0000 0.56299  0.68710  0.64158  Biso   1.000  O
  O35      1.0000 0.51741  0.47392  0.60402  Biso   1.000  O
  O36      1.0000 0.30909  0.26872  0.98060  Biso   1.000  O
  O37      1.0000 0.10774  0.21946  0.00551  Biso   1.000  O
  O38      1.0000 0.11329  0.18697  0.83402  Biso   1.000  O
