data_image0
_cell_length_a       11.2851
_cell_length_b       11.5995
_cell_length_c       12.5163
_cell_angle_alpha    90.0068
_cell_angle_beta     90.0001
_cell_angle_gamma    89.9972

_symmetry_space_group_name_H-M    "P 1"
_symmetry_int_tables_number       1

loop_
  _symmetry_equiv_pos_as_xyz
  'x, y, z'

loop_
  _atom_site_label
  _atom_site_occupancy
  _atom_site_fract_x
  _atom_site_fract_y
  _atom_site_fract_z
  _atom_site_thermal_displace_type
  _atom_site_B_iso_or_equiv
  _atom_site_type_symbol
  V1       1.0000 0.85726  0.83196  0.52124  Biso   1.000  V
  V2       1.0000 0.64270  0.16803  0.02136  Biso   1.000  V
  V3       1.0000 0.35731  0.66823  0.47893  Biso   1.000  V
  V4       1.0000 0.14268  0.33194  0.97885  Biso   1.000  V
  V5       1.0000 0.57705  0.88105  0.47906  Biso   1.000  V
  V6       1.0000 0.92300  0.11894  0.97913  Biso   1.000  V
  V7       1.0000 0.07702  0.61897  0.52090  Biso   1.000  V
  V8       1.0000 0.42297  0.38106  0.02092  Biso   1.000  V
  Co1      1.0000 0.96035  0.94340  0.76533  Biso   1.000  Co
  Co2      1.0000 0.53958  0.05663  0.26538  Biso   1.000  Co
  Co3      1.0000 0.46028  0.55658  0.23483  Biso   1.000  Co
  Co4      1.0000 0.03965  0.44342  0.73476  Biso   1.000  Co
  H1       1.0000 0.16106  0.88290  0.58586  Biso   1.000  H
  H2       1.0000 0.33892  0.11709  0.08585  Biso   1.000  H
  H3       1.0000 0.66108  0.61724  0.41415  Biso   1.000  H
  H4       1.0000 0.83888  0.38281  0.91409  Biso   1.000  H
  H5       1.0000 0.38203  0.98952  0.59787  Biso   1.000  H
  H6       1.0000 0.11791  0.01047  0.09786  Biso   1.000  H
  H7       1.0000 0.88203  0.51054  0.40214  Biso   1.000  H
  H8       1.0000 0.61795  0.48954  0.90217  Biso   1.000  H
  H9       1.0000 0.16292  0.11528  0.84668  Biso   1.000  H
  H10      1.0000 0.33706  0.88470  0.34664  Biso   1.000  H
  H11      1.0000 0.66282  0.38474  0.15342  Biso   1.000  H
  H12      1.0000 0.83706  0.61527  0.65343  Biso   1.000  H
  H13      1.0000 0.47616  0.08729  0.77741  Biso   1.000  H
  H14      1.0000 0.02379  0.91280  0.27736  Biso   1.000  H
  H15      1.0000 0.97608  0.41272  0.22264  Biso   1.000  H
  H16      1.0000 0.52383  0.58731  0.72270  Biso   1.000  H
  H17      1.0000 0.37718  0.17832  0.84727  Biso   1.000  H
  H18      1.0000 0.12276  0.82176  0.34727  Biso   1.000  H
  H19      1.0000 0.87709  0.32168  0.15281  Biso   1.000  H
  H20      1.0000 0.62281  0.67831  0.65284  Biso   1.000  H
  H21      1.0000 0.37576  0.31841  0.70598  Biso   1.000  H
  H22      1.0000 0.12419  0.68158  0.20598  Biso   1.000  H
  H23      1.0000 0.87575  0.18159  0.29411  Biso   1.000  H
  H24      1.0000 0.62421  0.81845  0.79414  Biso   1.000  H
  H25      1.0000 0.40402  0.21180  0.60868  Biso   1.000  H
  H26      1.0000 0.09593  0.78822  0.10864  Biso   1.000  H
  H27      1.0000 0.90401  0.28823  0.39140  Biso   1.000  H
  H28      1.0000 0.59600  0.71182  0.89144  Biso   1.000  H
  H29      1.0000 0.58894  0.30745  0.76594  Biso   1.000  H
  H30      1.0000 0.91100  0.69257  0.26592  Biso   1.000  H
  H31      1.0000 0.08891  0.19258  0.23411  Biso   1.000  H
  H32      1.0000 0.41101  0.80743  0.73422  Biso   1.000  H
  H33      1.0000 0.61211  0.18919  0.67955  Biso   1.000  H
  H34      1.0000 0.88784  0.81088  0.17957  Biso   1.000  H
  H35      1.0000 0.11207  0.31087  0.32044  Biso   1.000  H
  H36      1.0000 0.38792  0.68913  0.82055  Biso   1.000  H
  H37      1.0000 0.55486  0.43837  0.61075  Biso   1.000  H
  H38      1.0000 0.94507  0.56168  0.11066  Biso   1.000  H
  H39      1.0000 0.05494  0.06171  0.38935  Biso   1.000  H
  H40      1.0000 0.44512  0.93829  0.88952  Biso   1.000  H
  H41      1.0000 0.69295  0.36594  0.59660  Biso   1.000  H
  H42      1.0000 0.80697  0.63414  0.09655  Biso   1.000  H
  H43      1.0000 0.19301  0.13417  0.40342  Biso   1.000  H
  H44      1.0000 0.30702  0.86590  0.90357  Biso   1.000  H
  H45      1.0000 0.67476  0.16917  0.46777  Biso   1.000  H
  H46      1.0000 0.82518  0.83092  0.96781  Biso   1.000  H
  H47      1.0000 0.17484  0.33096  0.53224  Biso   1.000  H
  H48      1.0000 0.32510  0.66906  0.03230  Biso   1.000  H
  H49      1.0000 0.37013  0.27562  0.29778  Biso   1.000  H
  H50      1.0000 0.12974  0.72447  0.79773  Biso   1.000  H
  H51      1.0000 0.87029  0.22450  0.70235  Biso   1.000  H
  H52      1.0000 0.62963  0.77544  0.20249  Biso   1.000  H
  H53      1.0000 0.40596  0.42335  0.47180  Biso   1.000  H
  H54      1.0000 0.09393  0.57675  0.97171  Biso   1.000  H
  H55      1.0000 0.90608  0.07678  0.52829  Biso   1.000  H
  H56      1.0000 0.59395  0.92314  0.02846  Biso   1.000  H
  C1       1.0000 0.19303  0.94765  0.64112  Biso   1.000  C
  C2       1.0000 0.30693  0.05235  0.14110  Biso   1.000  C
  C3       1.0000 0.69303  0.55244  0.35893  Biso   1.000  C
  C4       1.0000 0.80691  0.44758  0.85888  Biso   1.000  C
  C5       1.0000 0.30229  0.99946  0.64522  Biso   1.000  C
  C6       1.0000 0.19768  0.00052  0.14519  Biso   1.000  C
  C7       1.0000 0.80226  0.50059  0.35482  Biso   1.000  C
  C8       1.0000 0.69770  0.49947  0.85482  Biso   1.000  C
  C9       1.0000 0.19072  0.06620  0.77750  Biso   1.000  C
  C10      1.0000 0.30927  0.93379  0.27746  Biso   1.000  C
  C11      1.0000 0.69064  0.43383  0.22259  Biso   1.000  C
  C12      1.0000 0.80927  0.56616  0.72258  Biso   1.000  C
  C13      1.0000 0.39961  0.14464  0.76806  Biso   1.000  C
  C14      1.0000 0.10033  0.85542  0.26804  Biso   1.000  C
  C15      1.0000 0.89954  0.35537  0.23201  Biso   1.000  C
  C16      1.0000 0.60038  0.64466  0.73205  Biso   1.000  C
  C17      1.0000 0.42914  0.24127  0.68883  Biso   1.000  C
  C18      1.0000 0.07083  0.75875  0.18881  Biso   1.000  C
  C19      1.0000 0.92911  0.25875  0.31123  Biso   1.000  C
  C20      1.0000 0.57085  0.74130  0.81129  Biso   1.000  C
  C21      1.0000 0.56182  0.26980  0.68909  Biso   1.000  C
  C22      1.0000 0.93812  0.73025  0.18909  Biso   1.000  C
  C23      1.0000 0.06180  0.23025  0.31094  Biso   1.000  C
  C24      1.0000 0.43816  0.76977  0.81105  Biso   1.000  C
  C25      1.0000 0.59657  0.35388  0.59980  Biso   1.000  C
  C26      1.0000 0.90335  0.64618  0.09977  Biso   1.000  C
  C27      1.0000 0.09662  0.14621  0.40025  Biso   1.000  C
  C28      1.0000 0.40339  0.85381  0.90039  Biso   1.000  C
  C29      1.0000 0.59808  0.21818  0.44281  Biso   1.000  C
  C30      1.0000 0.90182  0.78191  0.94280  Biso   1.000  C
  C31      1.0000 0.09820  0.28192  0.55724  Biso   1.000  C
  C32      1.0000 0.40174  0.71807  0.05734  Biso   1.000  C
  C33      1.0000 0.43710  0.27416  0.35961  Biso   1.000  C
  C34      1.0000 0.06277  0.72591  0.85955  Biso   1.000  C
  C35      1.0000 0.93728  0.22595  0.64052  Biso   1.000  C
  C36      1.0000 0.56269  0.77401  0.14064  Biso   1.000  C
  C37      1.0000 0.45368  0.34814  0.44373  Biso   1.000  C
  C38      1.0000 0.04620  0.65195  0.94366  Biso   1.000  C
  C39      1.0000 0.95378  0.15198  0.55639  Biso   1.000  C
  C40      1.0000 0.54619  0.84796  0.05652  Biso   1.000  C
  N1       1.0000 0.12400  0.98968  0.72420  Biso   1.000  N
  N2       1.0000 0.37597  0.01032  0.22417  Biso   1.000  N
  N3       1.0000 0.62396  0.51040  0.27588  Biso   1.000  N
  N4       1.0000 0.87598  0.48962  0.77585  Biso   1.000  N
  N5       1.0000 0.29946  0.07373  0.73197  Biso   1.000  N
  N6       1.0000 0.20051  0.92629  0.23196  Biso   1.000  N
  N7       1.0000 0.79940  0.42629  0.26810  Biso   1.000  N
  N8       1.0000 0.70054  0.57374  0.76810  Biso   1.000  N
  N9       1.0000 0.55609  0.31203  0.49513  Biso   1.000  N
  N10      1.0000 0.94382  0.68806  0.99511  Biso   1.000  N
  N11      1.0000 0.05617  0.18808  0.50493  Biso   1.000  N
  N12      1.0000 0.44382  0.81189  0.00505  Biso   1.000  N
  N13      1.0000 0.52767  0.19313  0.35985  Biso   1.000  N
  N14      1.0000 0.97221  0.80694  0.85983  Biso   1.000  N
  N15      1.0000 0.02786  0.30696  0.64024  Biso   1.000  N
  N16      1.0000 0.47207  0.69303  0.14035  Biso   1.000  N
  O1       1.0000 0.88004  0.89003  0.64400  Biso   1.000  O
  O2       1.0000 0.61998  0.11006  0.14413  Biso   1.000  O
  O3       1.0000 0.38020  0.60985  0.35631  Biso   1.000  O
  O4       1.0000 0.11983  0.39015  0.85617  Biso   1.000  O
  O5       1.0000 0.89124  0.92737  0.43080  Biso   1.000  O
  O6       1.0000 0.60869  0.07249  0.93098  Biso   1.000  O
  O7       1.0000 0.39120  0.57315  0.56967  Biso   1.000  O
  O8       1.0000 0.10875  0.42720  0.06946  Biso   1.000  O
  O9       1.0000 0.70318  0.79137  0.50922  Biso   1.000  O
  O10      1.0000 0.79680  0.20851  0.00934  Biso   1.000  O
  O11      1.0000 0.20317  0.70862  0.49071  Biso   1.000  O
  O12      1.0000 0.29679  0.29146  0.99071  Biso   1.000  O
  O13      1.0000 0.94388  0.70337  0.50397  Biso   1.000  O
  O14      1.0000 0.55612  0.29664  0.00401  Biso   1.000  O
  O15      1.0000 0.44380  0.79690  0.49607  Biso   1.000  O
  O16      1.0000 0.05613  0.20332  0.99603  Biso   1.000  O
  O17      1.0000 0.56917  0.99015  0.56031  Biso   1.000  O
  O18      1.0000 0.93115  0.00988  0.06039  Biso   1.000  O
  O19      1.0000 0.06897  0.50991  0.43960  Biso   1.000  O
  O20      1.0000 0.43104  0.49011  0.93965  Biso   1.000  O
  O21      1.0000 0.58496  0.92990  0.35102  Biso   1.000  O
  O22      1.0000 0.91491  0.07006  0.85110  Biso   1.000  O
  O23      1.0000 0.08499  0.57007  0.64893  Biso   1.000  O
  O24      1.0000 0.41499  0.42995  0.14896  Biso   1.000  O
