data_image0
_cell_length_a       15.8697
_cell_length_b       40.2062
_cell_length_c       40.2062
_cell_angle_alpha    119.983
_cell_angle_beta     90
_cell_angle_gamma    90

_symmetry_space_group_name_H-M    "P 1"
_symmetry_int_tables_number       1

loop_
  _symmetry_equiv_pos_as_xyz
  'x, y, z'

loop_
  _atom_site_label
  _atom_site_occupancy
  _atom_site_fract_x
  _atom_site_fract_y
  _atom_site_fract_z
  _atom_site_thermal_displace_type
  _atom_site_B_iso_or_equiv
  _atom_site_type_symbol
  Zr1      1.0000 0.00000  0.53441  0.06879  Biso   1.000  Zr
  Zr2      1.0000 1.00000  0.06879  0.53441  Biso   1.000  Zr
  Zr3      1.0000 0.00000  0.53440  0.46560  Biso   1.000  Zr
  Zr4      1.0000 0.00000  0.46560  0.53440  Biso   1.000  Zr
  Zr5      1.0000 0.00000  0.46559  0.93121  Biso   1.000  Zr
  Zr6      1.0000 1.00000  0.93121  0.46559  Biso   1.000  Zr
  Zr7      1.0000 0.89665  0.54084  0.00000  Biso   1.000  Zr
  Zr8      1.0000 0.89665  1.00000  0.45916  Biso   1.000  Zr
  Zr9      1.0000 0.10335  0.45916  1.00000  Biso   1.000  Zr
  Zr10     1.0000 0.89666  0.45917  0.45917  Biso   1.000  Zr
  Zr11     1.0000 0.10334  0.45917  0.45917  Biso   1.000  Zr
  Zr12     1.0000 0.10335  0.00000  0.54084  Biso   1.000  Zr
  Zr13     1.0000 0.89665  0.45916  1.00000  Biso   1.000  Zr
  Zr14     1.0000 0.10335  1.00000  0.45916  Biso   1.000  Zr
  Zr15     1.0000 0.10334  0.54083  0.54083  Biso   1.000  Zr
  Zr16     1.0000 0.89666  0.54083  0.54083  Biso   1.000  Zr
  Zr17     1.0000 0.89665  0.00000  0.54084  Biso   1.000  Zr
  Zr18     1.0000 0.10335  0.54084  0.00000  Biso   1.000  Zr
  H1       1.0000 0.84286  0.74620  0.21146  Biso   1.000  H
  H2       1.0000 0.84282  0.21146  0.46526  Biso   1.000  H
  H3       1.0000 0.15718  0.46526  0.21146  Biso   1.000  H
  H4       1.0000 0.84282  0.46523  0.25378  Biso   1.000  H
  H5       1.0000 0.15718  0.25378  0.46523  Biso   1.000  H
  H6       1.0000 0.15714  0.21146  0.74620  Biso   1.000  H
  H7       1.0000 0.84286  0.25380  0.78854  Biso   1.000  H
  H8       1.0000 0.15714  0.78854  0.25380  Biso   1.000  H
  H9       1.0000 0.15718  0.74622  0.53477  Biso   1.000  H
  H10      1.0000 0.84282  0.53477  0.74622  Biso   1.000  H
  H11      1.0000 0.84282  0.78854  0.53474  Biso   1.000  H
  H12      1.0000 0.15718  0.53474  0.78854  Biso   1.000  H
  H13      1.0000 0.15714  0.25380  0.78854  Biso   1.000  H
  H14      1.0000 0.15718  0.78854  0.53474  Biso   1.000  H
  H15      1.0000 0.84282  0.53474  0.78854  Biso   1.000  H
  H16      1.0000 0.15718  0.53477  0.74622  Biso   1.000  H
  H17      1.0000 0.84282  0.74622  0.53477  Biso   1.000  H
  H18      1.0000 0.84286  0.78854  0.25379  Biso   1.000  H
  H19      1.0000 0.15714  0.74620  0.21146  Biso   1.000  H
  H20      1.0000 0.84286  0.21146  0.74621  Biso   1.000  H
  H21      1.0000 0.84282  0.25378  0.46523  Biso   1.000  H
  H22      1.0000 0.15718  0.46523  0.25378  Biso   1.000  H
  H23      1.0000 0.15718  0.21146  0.46526  Biso   1.000  H
  H24      1.0000 0.84282  0.46526  0.21146  Biso   1.000  H
  H25      1.0000 0.87221  0.63088  0.16286  Biso   1.000  H
  H26      1.0000 0.87222  0.16283  0.53200  Biso   1.000  H
  H27      1.0000 0.12778  0.53200  0.16283  Biso   1.000  H
  H28      1.0000 0.87214  0.53202  0.36917  Biso   1.000  H
  H29      1.0000 0.12786  0.36917  0.53202  Biso   1.000  H
  H30      1.0000 0.12779  0.16286  0.63088  Biso   1.000  H
  H31      1.0000 0.87221  0.36912  0.83714  Biso   1.000  H
  H32      1.0000 0.12779  0.83714  0.36912  Biso   1.000  H
  H33      1.0000 0.12786  0.63083  0.46798  Biso   1.000  H
  H34      1.0000 0.87214  0.46798  0.63083  Biso   1.000  H
  H35      1.0000 0.87222  0.83717  0.46800  Biso   1.000  H
  H36      1.0000 0.12778  0.46800  0.83717  Biso   1.000  H
  H37      1.0000 0.12779  0.36912  0.83714  Biso   1.000  H
  H38      1.0000 0.12778  0.83717  0.46800  Biso   1.000  H
  H39      1.0000 0.87222  0.46800  0.83717  Biso   1.000  H
  H40      1.0000 0.12786  0.46798  0.63083  Biso   1.000  H
  H41      1.0000 0.87214  0.63083  0.46798  Biso   1.000  H
  H42      1.0000 0.87221  0.83714  0.36912  Biso   1.000  H
  H43      1.0000 0.12779  0.63088  0.16286  Biso   1.000  H
  H44      1.0000 0.87221  0.16286  0.63088  Biso   1.000  H
  H45      1.0000 0.87214  0.36917  0.53202  Biso   1.000  H
  H46      1.0000 0.12786  0.53202  0.36917  Biso   1.000  H
  H47      1.0000 0.12778  0.16283  0.53200  Biso   1.000  H
  H48      1.0000 0.87222  0.53200  0.16283  Biso   1.000  H
  H49      1.0000 0.79818  0.68801  0.21473  Biso   1.000  H
  H50      1.0000 0.79808  0.21472  0.52678  Biso   1.000  H
  H51      1.0000 0.20192  0.52678  0.21472  Biso   1.000  H
  H52      1.0000 0.79811  0.52675  0.31201  Biso   1.000  H
  H53      1.0000 0.20189  0.31201  0.52675  Biso   1.000  H
  H54      1.0000 0.20182  0.21473  0.68801  Biso   1.000  H
  H55      1.0000 0.79818  0.31199  0.78527  Biso   1.000  H
  H56      1.0000 0.20182  0.78527  0.31199  Biso   1.000  H
  H57      1.0000 0.20189  0.68799  0.47325  Biso   1.000  H
  H58      1.0000 0.79811  0.47325  0.68799  Biso   1.000  H
  H59      1.0000 0.79808  0.78528  0.47322  Biso   1.000  H
  H60      1.0000 0.20192  0.47322  0.78528  Biso   1.000  H
  H61      1.0000 0.20182  0.31199  0.78527  Biso   1.000  H
  H62      1.0000 0.20192  0.78528  0.47322  Biso   1.000  H
  H63      1.0000 0.79808  0.47322  0.78528  Biso   1.000  H
  H64      1.0000 0.20189  0.47325  0.68799  Biso   1.000  H
  H65      1.0000 0.79811  0.68799  0.47325  Biso   1.000  H
  H66      1.0000 0.79818  0.78527  0.31199  Biso   1.000  H
  H67      1.0000 0.20182  0.68801  0.21473  Biso   1.000  H
  H68      1.0000 0.79818  0.21473  0.68801  Biso   1.000  H
  H69      1.0000 0.79811  0.31201  0.52675  Biso   1.000  H
  H70      1.0000 0.20189  0.52675  0.31201  Biso   1.000  H
  H71      1.0000 0.20192  0.21472  0.52678  Biso   1.000  H
  H72      1.0000 0.79808  0.52678  0.21472  Biso   1.000  H
  H73      1.0000 0.66338  0.70137  0.12929  Biso   1.000  H
  H74      1.0000 0.66333  0.12931  0.42797  Biso   1.000  H
  H75      1.0000 0.33667  0.42797  0.12931  Biso   1.000  H
  H76      1.0000 0.66342  0.42795  0.29867  Biso   1.000  H
  H77      1.0000 0.33658  0.29867  0.42795  Biso   1.000  H
  H78      1.0000 0.33662  0.12929  0.70137  Biso   1.000  H
  H79      1.0000 0.66338  0.29863  0.87071  Biso   1.000  H
  H80      1.0000 0.33662  0.87071  0.29863  Biso   1.000  H
  H81      1.0000 0.33658  0.70133  0.57205  Biso   1.000  H
  H82      1.0000 0.66342  0.57205  0.70133  Biso   1.000  H
  H83      1.0000 0.66333  0.87069  0.57203  Biso   1.000  H
  H84      1.0000 0.33667  0.57203  0.87069  Biso   1.000  H
  H85      1.0000 0.33662  0.29863  0.87071  Biso   1.000  H
  H86      1.0000 0.33667  0.87069  0.57203  Biso   1.000  H
  H87      1.0000 0.66333  0.57203  0.87069  Biso   1.000  H
  H88      1.0000 0.33658  0.57205  0.70133  Biso   1.000  H
  H89      1.0000 0.66342  0.70133  0.57205  Biso   1.000  H
  H90      1.0000 0.66338  0.87071  0.29863  Biso   1.000  H
  H91      1.0000 0.33662  0.70137  0.12929  Biso   1.000  H
  H92      1.0000 0.66338  0.12929  0.70137  Biso   1.000  H
  H93      1.0000 0.66342  0.29867  0.42795  Biso   1.000  H
  H94      1.0000 0.33658  0.42795  0.29867  Biso   1.000  H
  H95      1.0000 0.33667  0.12931  0.42797  Biso   1.000  H
  H96      1.0000 0.66333  0.42797  0.12931  Biso   1.000  H
  H97      1.0000 0.73752  0.64388  0.07762  Biso   1.000  H
  H98      1.0000 0.73756  0.07762  0.43377  Biso   1.000  H
  H99      1.0000 0.26244  0.43377  0.07762  Biso   1.000  H
  H100     1.0000 0.73753  0.43378  0.35619  Biso   1.000  H
  H101     1.0000 0.26247  0.35619  0.43378  Biso   1.000  H
  H102     1.0000 0.26248  0.07762  0.64388  Biso   1.000  H
  H103     1.0000 0.73752  0.35612  0.92238  Biso   1.000  H
  H104     1.0000 0.26248  0.92238  0.35612  Biso   1.000  H
  H105     1.0000 0.26247  0.64381  0.56622  Biso   1.000  H
  H106     1.0000 0.73753  0.56622  0.64381  Biso   1.000  H
  H107     1.0000 0.73756  0.92238  0.56623  Biso   1.000  H
  H108     1.0000 0.26244  0.56623  0.92238  Biso   1.000  H
  H109     1.0000 0.26248  0.35612  0.92238  Biso   1.000  H
  H110     1.0000 0.26244  0.92238  0.56623  Biso   1.000  H
  H111     1.0000 0.73756  0.56623  0.92238  Biso   1.000  H
  H112     1.0000 0.26247  0.56622  0.64381  Biso   1.000  H
  H113     1.0000 0.73753  0.64381  0.56622  Biso   1.000  H
  H114     1.0000 0.73752  0.92238  0.35612  Biso   1.000  H
  H115     1.0000 0.26248  0.64388  0.07762  Biso   1.000  H
  H116     1.0000 0.73752  0.07762  0.64388  Biso   1.000  H
  H117     1.0000 0.73753  0.35619  0.43378  Biso   1.000  H
  H118     1.0000 0.26247  0.43378  0.35619  Biso   1.000  H
  H119     1.0000 0.26244  0.07762  0.43377  Biso   1.000  H
  H120     1.0000 0.73756  0.43377  0.07762  Biso   1.000  H
  H121     1.0000 0.56152  0.71003  0.18280  Biso   1.000  H
  H122     1.0000 0.56150  0.18282  0.47280  Biso   1.000  H
  H123     1.0000 0.43850  0.47280  0.18282  Biso   1.000  H
  H124     1.0000 0.56154  0.47282  0.29001  Biso   1.000  H
  H125     1.0000 0.43846  0.29001  0.47282  Biso   1.000  H
  H126     1.0000 0.43848  0.18280  0.71003  Biso   1.000  H
  H127     1.0000 0.56152  0.28997  0.81720  Biso   1.000  H
  H128     1.0000 0.43848  0.81720  0.28997  Biso   1.000  H
  H129     1.0000 0.43846  0.70999  0.52718  Biso   1.000  H
  H130     1.0000 0.56154  0.52718  0.70999  Biso   1.000  H
  H131     1.0000 0.56150  0.81718  0.52720  Biso   1.000  H
  H132     1.0000 0.43850  0.52720  0.81718  Biso   1.000  H
  H133     1.0000 0.43848  0.28997  0.81720  Biso   1.000  H
  H134     1.0000 0.43850  0.81718  0.52720  Biso   1.000  H
  H135     1.0000 0.56150  0.52720  0.81718  Biso   1.000  H
  H136     1.0000 0.43846  0.52718  0.70999  Biso   1.000  H
  H137     1.0000 0.56154  0.70999  0.52718  Biso   1.000  H
  H138     1.0000 0.56152  0.81720  0.28997  Biso   1.000  H
  H139     1.0000 0.43848  0.71003  0.18280  Biso   1.000  H
  H140     1.0000 0.56152  0.18280  0.71003  Biso   1.000  H
  H141     1.0000 0.56154  0.29001  0.47282  Biso   1.000  H
  H142     1.0000 0.43846  0.47282  0.29001  Biso   1.000  H
  H143     1.0000 0.43850  0.18282  0.47280  Biso   1.000  H
  H144     1.0000 0.56150  0.47280  0.18282  Biso   1.000  H
  C1       1.0000 0.85662  0.60018  0.08698  Biso   1.000  C
  C2       1.0000 0.85666  0.08697  0.48681  Biso   1.000  C
  C3       1.0000 0.14334  0.48681  0.08697  Biso   1.000  C
  C4       1.0000 0.85660  0.48683  0.39985  Biso   1.000  C
  C5       1.0000 0.14340  0.39985  0.48683  Biso   1.000  C
  C6       1.0000 0.14338  0.08698  0.60018  Biso   1.000  C
  C7       1.0000 0.85662  0.39982  0.91302  Biso   1.000  C
  C8       1.0000 0.14338  0.91302  0.39982  Biso   1.000  C
  C9       1.0000 0.14340  0.60015  0.51317  Biso   1.000  C
  C10      1.0000 0.85660  0.51317  0.60015  Biso   1.000  C
  C11      1.0000 0.85666  0.91303  0.51319  Biso   1.000  C
  C12      1.0000 0.14334  0.51319  0.91303  Biso   1.000  C
  C13      1.0000 0.14338  0.39982  0.91302  Biso   1.000  C
  C14      1.0000 0.14334  0.91303  0.51319  Biso   1.000  C
  C15      1.0000 0.85666  0.51319  0.91303  Biso   1.000  C
  C16      1.0000 0.14340  0.51317  0.60015  Biso   1.000  C
  C17      1.0000 0.85660  0.60015  0.51317  Biso   1.000  C
  C18      1.0000 0.85662  0.91302  0.39982  Biso   1.000  C
  C19      1.0000 0.14338  0.60018  0.08698  Biso   1.000  C
  C20      1.0000 0.85662  0.08698  0.60018  Biso   1.000  C
  C21      1.0000 0.85660  0.39985  0.48683  Biso   1.000  C
  C22      1.0000 0.14340  0.48683  0.39985  Biso   1.000  C
  C23      1.0000 0.14334  0.08697  0.48681  Biso   1.000  C
  C24      1.0000 0.85666  0.48681  0.08697  Biso   1.000  C
  C25      1.0000 0.80999  0.63407  0.11711  Biso   1.000  C
  C26      1.0000 0.81002  0.11711  0.48306  Biso   1.000  C
  C27      1.0000 0.18998  0.48306  0.11711  Biso   1.000  C
  C28      1.0000 0.80995  0.48308  0.36598  Biso   1.000  C
  C29      1.0000 0.19005  0.36598  0.48308  Biso   1.000  C
  C30      1.0000 0.19001  0.11711  0.63407  Biso   1.000  C
  C31      1.0000 0.80999  0.36593  0.88289  Biso   1.000  C
  C32      1.0000 0.19001  0.88289  0.36593  Biso   1.000  C
  C33      1.0000 0.19005  0.63402  0.51692  Biso   1.000  C
  C34      1.0000 0.80995  0.51692  0.63402  Biso   1.000  C
  C35      1.0000 0.81002  0.88289  0.51694  Biso   1.000  C
  C36      1.0000 0.18998  0.51694  0.88289  Biso   1.000  C
  C37      1.0000 0.19001  0.36593  0.88289  Biso   1.000  C
  C38      1.0000 0.18998  0.88289  0.51694  Biso   1.000  C
  C39      1.0000 0.81002  0.51694  0.88289  Biso   1.000  C
  C40      1.0000 0.19005  0.51692  0.63402  Biso   1.000  C
  C41      1.0000 0.80995  0.63402  0.51692  Biso   1.000  C
  C42      1.0000 0.80999  0.88289  0.36593  Biso   1.000  C
  C43      1.0000 0.19001  0.63407  0.11711  Biso   1.000  C
  C44      1.0000 0.80999  0.11711  0.63407  Biso   1.000  C
  C45      1.0000 0.80995  0.36598  0.48308  Biso   1.000  C
  C46      1.0000 0.19005  0.48308  0.36598  Biso   1.000  C
  C47      1.0000 0.18998  0.11711  0.48306  Biso   1.000  C
  C48      1.0000 0.81002  0.48306  0.11711  Biso   1.000  C
  C49      1.0000 0.82667  0.64670  0.15595  Biso   1.000  C
  C50      1.0000 0.82667  0.15593  0.50927  Biso   1.000  C
  C51      1.0000 0.17333  0.50927  0.15593  Biso   1.000  C
  C52      1.0000 0.82661  0.50928  0.35334  Biso   1.000  C
  C53      1.0000 0.17339  0.35334  0.50928  Biso   1.000  C
  C54      1.0000 0.17333  0.15595  0.64670  Biso   1.000  C
  C55      1.0000 0.82667  0.35330  0.84405  Biso   1.000  C
  C56      1.0000 0.17333  0.84405  0.35330  Biso   1.000  C
  C57      1.0000 0.17339  0.64666  0.49072  Biso   1.000  C
  C58      1.0000 0.82661  0.49072  0.64666  Biso   1.000  C
  C59      1.0000 0.82667  0.84407  0.49073  Biso   1.000  C
  C60      1.0000 0.17333  0.49073  0.84407  Biso   1.000  C
  C61      1.0000 0.17333  0.35330  0.84405  Biso   1.000  C
  C62      1.0000 0.17333  0.84407  0.49073  Biso   1.000  C
  C63      1.0000 0.82667  0.49073  0.84407  Biso   1.000  C
  C64      1.0000 0.17339  0.49072  0.64666  Biso   1.000  C
  C65      1.0000 0.82661  0.64666  0.49072  Biso   1.000  C
  C66      1.0000 0.82667  0.84405  0.35330  Biso   1.000  C
  C67      1.0000 0.17333  0.64670  0.15595  Biso   1.000  C
  C68      1.0000 0.82667  0.15595  0.64670  Biso   1.000  C
  C69      1.0000 0.82661  0.35334  0.50928  Biso   1.000  C
  C70      1.0000 0.17339  0.50928  0.35334  Biso   1.000  C
  C71      1.0000 0.17333  0.15593  0.50927  Biso   1.000  C
  C72      1.0000 0.82667  0.50927  0.15593  Biso   1.000  C
  C73      1.0000 0.78538  0.67862  0.18473  Biso   1.000  C
  C74      1.0000 0.78533  0.18473  0.50616  Biso   1.000  C
  C75      1.0000 0.21467  0.50616  0.18473  Biso   1.000  C
  C76      1.0000 0.78534  0.50615  0.32141  Biso   1.000  C
  C77      1.0000 0.21466  0.32141  0.50615  Biso   1.000  C
  C78      1.0000 0.21462  0.18473  0.67862  Biso   1.000  C
  C79      1.0000 0.78538  0.32138  0.81527  Biso   1.000  C
  C80      1.0000 0.21462  0.81527  0.32138  Biso   1.000  C
  C81      1.0000 0.21466  0.67859  0.49385  Biso   1.000  C
  C82      1.0000 0.78534  0.49385  0.67859  Biso   1.000  C
  C83      1.0000 0.78533  0.81527  0.49384  Biso   1.000  C
  C84      1.0000 0.21467  0.49384  0.81527  Biso   1.000  C
  C85      1.0000 0.21462  0.32138  0.81527  Biso   1.000  C
  C86      1.0000 0.21467  0.81527  0.49384  Biso   1.000  C
  C87      1.0000 0.78533  0.49384  0.81527  Biso   1.000  C
  C88      1.0000 0.21466  0.49385  0.67859  Biso   1.000  C
  C89      1.0000 0.78534  0.67859  0.49385  Biso   1.000  C
  C90      1.0000 0.78538  0.81527  0.32138  Biso   1.000  C
  C91      1.0000 0.21462  0.67862  0.18473  Biso   1.000  C
  C92      1.0000 0.78538  0.18473  0.67862  Biso   1.000  C
  C93      1.0000 0.78534  0.32141  0.50615  Biso   1.000  C
  C94      1.0000 0.21466  0.50615  0.32141  Biso   1.000  C
  C95      1.0000 0.21467  0.18473  0.50616  Biso   1.000  C
  C96      1.0000 0.78533  0.50616  0.18473  Biso   1.000  C
  C97      1.0000 0.72595  0.69894  0.17566  Biso   1.000  C
  C98      1.0000 0.72591  0.17567  0.47677  Biso   1.000  C
  C99      1.0000 0.27409  0.47677  0.17567  Biso   1.000  C
  C100     1.0000 0.72595  0.47675  0.30109  Biso   1.000  C
  C101     1.0000 0.27405  0.30109  0.47675  Biso   1.000  C
  C102     1.0000 0.27405  0.17566  0.69894  Biso   1.000  C
  C103     1.0000 0.72595  0.30106  0.82434  Biso   1.000  C
  C104     1.0000 0.27405  0.82434  0.30106  Biso   1.000  C
  C105     1.0000 0.27405  0.69891  0.52325  Biso   1.000  C
  C106     1.0000 0.72595  0.52325  0.69891  Biso   1.000  C
  C107     1.0000 0.72591  0.82433  0.52323  Biso   1.000  C
  C108     1.0000 0.27409  0.52323  0.82433  Biso   1.000  C
  C109     1.0000 0.27405  0.30106  0.82434  Biso   1.000  C
  C110     1.0000 0.27409  0.82433  0.52323  Biso   1.000  C
  C111     1.0000 0.72591  0.52323  0.82433  Biso   1.000  C
  C112     1.0000 0.27405  0.52325  0.69891  Biso   1.000  C
  C113     1.0000 0.72595  0.69891  0.52325  Biso   1.000  C
  C114     1.0000 0.72595  0.82434  0.30106  Biso   1.000  C
  C115     1.0000 0.27405  0.69894  0.17566  Biso   1.000  C
  C116     1.0000 0.72595  0.17566  0.69894  Biso   1.000  C
  C117     1.0000 0.72595  0.30109  0.47675  Biso   1.000  C
  C118     1.0000 0.27405  0.47675  0.30109  Biso   1.000  C
  C119     1.0000 0.27409  0.17567  0.47677  Biso   1.000  C
  C120     1.0000 0.72591  0.47677  0.17567  Biso   1.000  C
  C121     1.0000 0.70883  0.68583  0.13667  Biso   1.000  C
  C122     1.0000 0.70881  0.13668  0.45089  Biso   1.000  C
  C123     1.0000 0.29119  0.45089  0.13668  Biso   1.000  C
  C124     1.0000 0.70885  0.45088  0.31422  Biso   1.000  C
  C125     1.0000 0.29115  0.31422  0.45088  Biso   1.000  C
  C126     1.0000 0.29117  0.13667  0.68583  Biso   1.000  C
  C127     1.0000 0.70883  0.31417  0.86333  Biso   1.000  C
  C128     1.0000 0.29117  0.86333  0.31417  Biso   1.000  C
  C129     1.0000 0.29115  0.68578  0.54912  Biso   1.000  C
  C130     1.0000 0.70885  0.54912  0.68578  Biso   1.000  C
  C131     1.0000 0.70881  0.86332  0.54911  Biso   1.000  C
  C132     1.0000 0.29119  0.54911  0.86332  Biso   1.000  C
  C133     1.0000 0.29117  0.31417  0.86333  Biso   1.000  C
  C134     1.0000 0.29119  0.86332  0.54911  Biso   1.000  C
  C135     1.0000 0.70881  0.54911  0.86332  Biso   1.000  C
  C136     1.0000 0.29115  0.54912  0.68578  Biso   1.000  C
  C137     1.0000 0.70885  0.68578  0.54912  Biso   1.000  C
  C138     1.0000 0.70883  0.86333  0.31417  Biso   1.000  C
  C139     1.0000 0.29117  0.68583  0.13667  Biso   1.000  C
  C140     1.0000 0.70883  0.13667  0.68583  Biso   1.000  C
  C141     1.0000 0.70885  0.31422  0.45088  Biso   1.000  C
  C142     1.0000 0.29115  0.45088  0.31422  Biso   1.000  C
  C143     1.0000 0.29119  0.13668  0.45089  Biso   1.000  C
  C144     1.0000 0.70881  0.45089  0.13668  Biso   1.000  C
  C145     1.0000 0.75027  0.65380  0.10773  Biso   1.000  C
  C146     1.0000 0.75028  0.10773  0.45396  Biso   1.000  C
  C147     1.0000 0.24972  0.45396  0.10773  Biso   1.000  C
  C148     1.0000 0.75026  0.45397  0.34626  Biso   1.000  C
  C149     1.0000 0.24974  0.34626  0.45397  Biso   1.000  C
  C150     1.0000 0.24973  0.10773  0.65380  Biso   1.000  C
  C151     1.0000 0.75027  0.34620  0.89227  Biso   1.000  C
  C152     1.0000 0.24973  0.89227  0.34620  Biso   1.000  C
  C153     1.0000 0.24974  0.65374  0.54603  Biso   1.000  C
  C154     1.0000 0.75026  0.54603  0.65374  Biso   1.000  C
  C155     1.0000 0.75028  0.89227  0.54604  Biso   1.000  C
  C156     1.0000 0.24972  0.54604  0.89227  Biso   1.000  C
  C157     1.0000 0.24973  0.34620  0.89227  Biso   1.000  C
  C158     1.0000 0.24972  0.89227  0.54604  Biso   1.000  C
  C159     1.0000 0.75028  0.54604  0.89227  Biso   1.000  C
  C160     1.0000 0.24974  0.54603  0.65374  Biso   1.000  C
  C161     1.0000 0.75026  0.65374  0.54603  Biso   1.000  C
  C162     1.0000 0.75027  0.89227  0.34620  Biso   1.000  C
  C163     1.0000 0.24973  0.65380  0.10773  Biso   1.000  C
  C164     1.0000 0.75027  0.10773  0.65380  Biso   1.000  C
  C165     1.0000 0.75026  0.34626  0.45397  Biso   1.000  C
  C166     1.0000 0.24974  0.45397  0.34626  Biso   1.000  C
  C167     1.0000 0.24972  0.10773  0.45396  Biso   1.000  C
  C168     1.0000 0.75028  0.45396  0.10773  Biso   1.000  C
  C169     1.0000 0.72726  0.76285  0.23715  Biso   1.000  C
  C170     1.0000 0.72724  0.23717  0.47434  Biso   1.000  C
  C171     1.0000 0.27276  0.47434  0.23717  Biso   1.000  C
  C172     1.0000 0.72724  0.47434  0.23717  Biso   1.000  C
  C173     1.0000 0.27276  0.23717  0.47434  Biso   1.000  C
  C174     1.0000 0.27274  0.23715  0.76285  Biso   1.000  C
  C175     1.0000 0.72726  0.23715  0.76285  Biso   1.000  C
  C176     1.0000 0.27274  0.76285  0.23715  Biso   1.000  C
  C177     1.0000 0.27276  0.76283  0.52566  Biso   1.000  C
  C178     1.0000 0.72724  0.52566  0.76283  Biso   1.000  C
  C179     1.0000 0.72724  0.76283  0.52566  Biso   1.000  C
  C180     1.0000 0.27276  0.52566  0.76283  Biso   1.000  C
  C181     1.0000 0.68158  0.73260  0.20673  Biso   1.000  C
  C182     1.0000 0.68155  0.20675  0.47417  Biso   1.000  C
  C183     1.0000 0.31845  0.47417  0.20675  Biso   1.000  C
  C184     1.0000 0.68157  0.47416  0.26742  Biso   1.000  C
  C185     1.0000 0.31843  0.26742  0.47416  Biso   1.000  C
  C186     1.0000 0.31842  0.20673  0.73260  Biso   1.000  C
  C187     1.0000 0.68158  0.26740  0.79327  Biso   1.000  C
  C188     1.0000 0.31842  0.79327  0.26740  Biso   1.000  C
  C189     1.0000 0.31843  0.73258  0.52584  Biso   1.000  C
  C190     1.0000 0.68157  0.52584  0.73258  Biso   1.000  C
  C191     1.0000 0.68155  0.79325  0.52583  Biso   1.000  C
  C192     1.0000 0.31845  0.52583  0.79325  Biso   1.000  C
  C193     1.0000 0.31842  0.26740  0.79327  Biso   1.000  C
  C194     1.0000 0.31845  0.79325  0.52583  Biso   1.000  C
  C195     1.0000 0.68155  0.52583  0.79325  Biso   1.000  C
  C196     1.0000 0.31843  0.52584  0.73258  Biso   1.000  C
  C197     1.0000 0.68157  0.73258  0.52584  Biso   1.000  C
  C198     1.0000 0.68158  0.79327  0.26740  Biso   1.000  C
  C199     1.0000 0.31842  0.73260  0.20673  Biso   1.000  C
  C200     1.0000 0.68158  0.20673  0.73260  Biso   1.000  C
  C201     1.0000 0.68157  0.26742  0.47416  Biso   1.000  C
  C202     1.0000 0.31843  0.47416  0.26742  Biso   1.000  C
  C203     1.0000 0.31845  0.20675  0.47417  Biso   1.000  C
  C204     1.0000 0.68155  0.47417  0.20675  Biso   1.000  C
  C205     1.0000 0.59352  0.73418  0.20645  Biso   1.000  C
  C206     1.0000 0.59351  0.20647  0.47231  Biso   1.000  C
  C207     1.0000 0.40649  0.47231  0.20647  Biso   1.000  C
  C208     1.0000 0.59353  0.47231  0.26586  Biso   1.000  C
  C209     1.0000 0.40647  0.26586  0.47231  Biso   1.000  C
  C210     1.0000 0.40648  0.20645  0.73418  Biso   1.000  C
  C211     1.0000 0.59352  0.26582  0.79355  Biso   1.000  C
  C212     1.0000 0.40648  0.79355  0.26582  Biso   1.000  C
  C213     1.0000 0.40647  0.73414  0.52769  Biso   1.000  C
  C214     1.0000 0.59353  0.52769  0.73414  Biso   1.000  C
  C215     1.0000 0.59351  0.79353  0.52769  Biso   1.000  C
  C216     1.0000 0.40649  0.52769  0.79353  Biso   1.000  C
  C217     1.0000 0.40648  0.26582  0.79355  Biso   1.000  C
  C218     1.0000 0.40649  0.79353  0.52769  Biso   1.000  C
  C219     1.0000 0.59351  0.52769  0.79353  Biso   1.000  C
  C220     1.0000 0.40647  0.52769  0.73414  Biso   1.000  C
  C221     1.0000 0.59353  0.73414  0.52769  Biso   1.000  C
  C222     1.0000 0.59352  0.79355  0.26582  Biso   1.000  C
  C223     1.0000 0.40648  0.73418  0.20645  Biso   1.000  C
  C224     1.0000 0.59352  0.20645  0.73418  Biso   1.000  C
  C225     1.0000 0.59353  0.26586  0.47231  Biso   1.000  C
  C226     1.0000 0.40647  0.47231  0.26586  Biso   1.000  C
  C227     1.0000 0.40649  0.20647  0.47231  Biso   1.000  C
  C228     1.0000 0.59351  0.47231  0.20647  Biso   1.000  C
  C229     1.0000 0.54673  0.76433  0.23567  Biso   1.000  C
  C230     1.0000 0.54672  0.23570  0.47138  Biso   1.000  C
  C231     1.0000 0.45328  0.47138  0.23570  Biso   1.000  C
  C232     1.0000 0.54672  0.47138  0.23570  Biso   1.000  C
  C233     1.0000 0.45328  0.23570  0.47138  Biso   1.000  C
  C234     1.0000 0.45327  0.23567  0.76433  Biso   1.000  C
  C235     1.0000 0.54673  0.23567  0.76433  Biso   1.000  C
  C236     1.0000 0.45327  0.76433  0.23567  Biso   1.000  C
  C237     1.0000 0.45328  0.76430  0.52862  Biso   1.000  C
  C238     1.0000 0.54672  0.52862  0.76430  Biso   1.000  C
  C239     1.0000 0.54672  0.76430  0.52862  Biso   1.000  C
  C240     1.0000 0.45328  0.52862  0.76430  Biso   1.000  C
  N1       1.0000 0.81507  0.76255  0.23745  Biso   1.000  N
  N2       1.0000 0.81504  0.23745  0.47490  Biso   1.000  N
  N3       1.0000 0.18496  0.47490  0.23745  Biso   1.000  N
  N4       1.0000 0.81504  0.47490  0.23745  Biso   1.000  N
  N5       1.0000 0.18496  0.23745  0.47490  Biso   1.000  N
  N6       1.0000 0.18493  0.23745  0.76255  Biso   1.000  N
  N7       1.0000 0.81507  0.23745  0.76255  Biso   1.000  N
  N8       1.0000 0.18493  0.76255  0.23745  Biso   1.000  N
  N9       1.0000 0.18496  0.76255  0.52510  Biso   1.000  N
  N10      1.0000 0.81504  0.52510  0.76255  Biso   1.000  N
  N11      1.0000 0.81504  0.76255  0.52510  Biso   1.000  N
  N12      1.0000 0.18496  0.52510  0.76255  Biso   1.000  N
  O1       1.0000 0.91009  0.58475  0.09874  Biso   1.000  O
  O2       1.0000 0.91010  0.09872  0.51400  Biso   1.000  O
  O3       1.0000 0.08990  0.51400  0.09872  Biso   1.000  O
  O4       1.0000 0.91008  0.51401  0.41527  Biso   1.000  O
  O5       1.0000 0.08992  0.41527  0.51401  Biso   1.000  O
  O6       1.0000 0.08991  0.09874  0.58475  Biso   1.000  O
  O7       1.0000 0.91009  0.41525  0.90126  Biso   1.000  O
  O8       1.0000 0.08991  0.90126  0.41525  Biso   1.000  O
  O9       1.0000 0.08992  0.58473  0.48599  Biso   1.000  O
  O10      1.0000 0.91008  0.48599  0.58473  Biso   1.000  O
  O11      1.0000 0.91010  0.90128  0.48600  Biso   1.000  O
  O12      1.0000 0.08990  0.48600  0.90128  Biso   1.000  O
  O13      1.0000 0.08991  0.41525  0.90126  Biso   1.000  O
  O14      1.0000 0.08990  0.90128  0.48600  Biso   1.000  O
  O15      1.0000 0.91010  0.48600  0.90128  Biso   1.000  O
  O16      1.0000 0.08992  0.48599  0.58473  Biso   1.000  O
  O17      1.0000 0.91008  0.58473  0.48599  Biso   1.000  O
  O18      1.0000 0.91009  0.90126  0.41525  Biso   1.000  O
  O19      1.0000 0.08991  0.58475  0.09874  Biso   1.000  O
  O20      1.0000 0.91009  0.09874  0.58475  Biso   1.000  O
  O21      1.0000 0.91008  0.41527  0.51401  Biso   1.000  O
  O22      1.0000 0.08992  0.51401  0.41527  Biso   1.000  O
  O23      1.0000 0.08990  0.09872  0.51400  Biso   1.000  O
  O24      1.0000 0.91010  0.51400  0.09872  Biso   1.000  O
  O25      1.0000 0.83938  0.58923  0.05136  Biso   1.000  O
  O26      1.0000 0.83942  0.05136  0.46214  Biso   1.000  O
  O27      1.0000 0.16058  0.46214  0.05136  Biso   1.000  O
  O28      1.0000 0.83936  0.46216  0.41082  Biso   1.000  O
  O29      1.0000 0.16064  0.41082  0.46216  Biso   1.000  O
  O30      1.0000 0.16062  0.05136  0.58923  Biso   1.000  O
  O31      1.0000 0.83938  0.41077  0.94864  Biso   1.000  O
  O32      1.0000 0.16062  0.94864  0.41077  Biso   1.000  O
  O33      1.0000 0.16064  0.58918  0.53784  Biso   1.000  O
  O34      1.0000 0.83936  0.53784  0.58918  Biso   1.000  O
  O35      1.0000 0.83942  0.94864  0.53786  Biso   1.000  O
  O36      1.0000 0.16058  0.53786  0.94864  Biso   1.000  O
  O37      1.0000 0.16062  0.41077  0.94864  Biso   1.000  O
  O38      1.0000 0.16058  0.94864  0.53786  Biso   1.000  O
  O39      1.0000 0.83942  0.53786  0.94864  Biso   1.000  O
  O40      1.0000 0.16064  0.53784  0.58918  Biso   1.000  O
  O41      1.0000 0.83936  0.58918  0.53784  Biso   1.000  O
  O42      1.0000 0.83938  0.94864  0.41077  Biso   1.000  O
  O43      1.0000 0.16062  0.58923  0.05136  Biso   1.000  O
  O44      1.0000 0.83938  0.05136  0.58923  Biso   1.000  O
  O45      1.0000 0.83936  0.41082  0.46216  Biso   1.000  O
  O46      1.0000 0.16064  0.46216  0.41082  Biso   1.000  O
  O47      1.0000 0.16058  0.05136  0.46214  Biso   1.000  O
  O48      1.0000 0.83942  0.46214  0.05136  Biso   1.000  O
  O49      1.0000 1.00000  0.56271  0.03509  Biso   1.000  O
  O50      1.0000 1.00000  0.03508  0.47241  Biso   1.000  O
  O51      1.0000 0.00000  0.47241  0.03508  Biso   1.000  O
  O52      1.0000 1.00000  0.47239  0.43729  Biso   1.000  O
  O53      1.0000 0.00000  0.43729  0.47239  Biso   1.000  O
  O54      1.0000 0.00000  0.03509  0.56271  Biso   1.000  O
  O55      1.0000 1.00000  0.43729  0.96491  Biso   1.000  O
  O56      1.0000 0.00000  0.96491  0.43729  Biso   1.000  O
  O57      1.0000 0.00000  0.56271  0.52761  Biso   1.000  O
  O58      1.0000 1.00000  0.52761  0.56271  Biso   1.000  O
  O59      1.0000 1.00000  0.96492  0.52759  Biso   1.000  O
  O60      1.0000 0.00000  0.52759  0.96492  Biso   1.000  O
  O61      1.0000 0.88591  0.51752  0.03504  Biso   1.000  O
  O62      1.0000 0.88591  0.03504  0.51752  Biso   1.000  O
  O63      1.0000 0.11409  0.51752  0.03504  Biso   1.000  O
  O64      1.0000 0.88596  0.51752  0.48248  Biso   1.000  O
  O65      1.0000 0.11404  0.48248  0.51752  Biso   1.000  O
  O66      1.0000 0.11409  0.03504  0.51752  Biso   1.000  O
  O67      1.0000 0.88591  0.48248  0.96496  Biso   1.000  O
  O68      1.0000 0.11409  0.96496  0.48248  Biso   1.000  O
  O69      1.0000 0.11404  0.51752  0.48248  Biso   1.000  O
  O70      1.0000 0.88596  0.48248  0.51752  Biso   1.000  O
  O71      1.0000 0.88591  0.96496  0.48248  Biso   1.000  O
  O72      1.0000 0.11409  0.48248  0.96496  Biso   1.000  O
