data_image0
_cell_length_a       10.4202
_cell_length_b       11.2043
_cell_length_c       11.2043
_cell_angle_alpha    77.5272
_cell_angle_beta     62.2964
_cell_angle_gamma    62.2964

_symmetry_space_group_name_H-M    "P 1"
_symmetry_int_tables_number       1

loop_
  _symmetry_equiv_pos_as_xyz
  'x, y, z'

loop_
  _atom_site_label
  _atom_site_occupancy
  _atom_site_fract_x
  _atom_site_fract_y
  _atom_site_fract_z
  _atom_site_thermal_displace_type
  _atom_site_B_iso_or_equiv
  _atom_site_type_symbol
  O1       1.0000 0.25246  0.74786  0.74786  Biso   1.000  O
  O2       1.0000 0.00000  0.74746  0.25254  Biso   1.000  O
  O3       1.0000 0.74754  0.25214  0.25214  Biso   1.000  O
  O4       1.0000 1.00000  0.25254  0.74746  Biso   1.000  O
  O5       1.0000 0.16364  0.67290  0.00011  Biso   1.000  O
  O6       1.0000 0.83636  0.99989  0.32710  Biso   1.000  O
  O7       1.0000 0.83636  0.32710  0.99989  Biso   1.000  O
  O8       1.0000 0.16364  0.00011  0.67290  Biso   1.000  O
  O9       1.0000 0.71964  0.63138  0.36851  Biso   1.000  O
  O10      1.0000 0.35042  0.36917  0.36917  Biso   1.000  O
  O11      1.0000 0.71964  0.36851  0.63138  Biso   1.000  O
  O12      1.0000 0.08852  0.63113  0.63113  Biso   1.000  O
  O13      1.0000 0.28036  0.36862  0.63149  Biso   1.000  O
  O14      1.0000 0.64958  0.63083  0.63083  Biso   1.000  O
  O15      1.0000 0.28036  0.63149  0.36862  Biso   1.000  O
  O16      1.0000 0.91148  0.36887  0.36887  Biso   1.000  O
  O17      1.0000 0.45362  0.82101  0.52560  Biso   1.000  O
  O18      1.0000 0.27421  0.52525  0.17927  Biso   1.000  O
  O19      1.0000 0.79966  0.17918  0.47441  Biso   1.000  O
  O20      1.0000 0.97904  0.47458  0.82120  Biso   1.000  O
  O21      1.0000 0.79966  0.47441  0.17918  Biso   1.000  O
  O22      1.0000 0.97904  0.82120  0.47458  Biso   1.000  O
  O23      1.0000 0.45362  0.52560  0.82101  Biso   1.000  O
  O24      1.0000 0.27421  0.17927  0.52525  Biso   1.000  O
  O25      1.0000 0.54638  0.17899  0.47440  Biso   1.000  O
  O26      1.0000 0.72579  0.47475  0.82073  Biso   1.000  O
  O27      1.0000 0.20034  0.82082  0.52559  Biso   1.000  O
  O28      1.0000 0.02096  0.52542  0.17880  Biso   1.000  O
  O29      1.0000 0.20034  0.52559  0.82082  Biso   1.000  O
  O30      1.0000 0.02096  0.17880  0.52542  Biso   1.000  O
  O31      1.0000 0.54638  0.47440  0.17899  Biso   1.000  O
  O32      1.0000 0.72579  0.82073  0.47475  Biso   1.000  O
  Si1      1.0000 0.26827  0.84614  0.61776  Biso   1.000  Si
  Si2      1.0000 0.11415  0.61754  0.15398  Biso   1.000  Si
  Si3      1.0000 0.73173  0.15386  0.38224  Biso   1.000  Si
  Si4      1.0000 0.88585  0.38246  0.84602  Biso   1.000  Si
  Si5      1.0000 0.73173  0.38224  0.15386  Biso   1.000  Si
  Si6      1.0000 0.88585  0.84602  0.38246  Biso   1.000  Si
  Si7      1.0000 0.26827  0.61776  0.84614  Biso   1.000  Si
  Si8      1.0000 0.11415  0.15398  0.61754  Biso   1.000  Si
  Si9      1.0000 0.86224  0.49998  0.27533  Biso   1.000  Si
  Si10     1.0000 0.36214  0.27547  0.50010  Biso   1.000  Si
  Si11     1.0000 0.63786  0.49990  0.72452  Biso   1.000  Si
  Si12     1.0000 0.13776  0.72467  0.50002  Biso   1.000  Si
  Si13     1.0000 0.63786  0.72453  0.49990  Biso   1.000  Si
  Si14     1.0000 0.13776  0.50002  0.72467  Biso   1.000  Si
  Si15     1.0000 0.86224  0.27533  0.49998  Biso   1.000  Si
  Si16     1.0000 0.36214  0.50010  0.27548  Biso   1.000  Si
