data_image0
_cell_length_a       23.5269
_cell_length_b       23.5268
_cell_length_c       23.5269
_cell_angle_alpha    109.468
_cell_angle_beta     109.469
_cell_angle_gamma    109.469

_symmetry_space_group_name_H-M    "P 1"
_symmetry_int_tables_number       1

loop_
  _symmetry_equiv_pos_as_xyz
  'x, y, z'

loop_
  _atom_site_label
  _atom_site_occupancy
  _atom_site_fract_x
  _atom_site_fract_y
  _atom_site_fract_z
  _atom_site_thermal_displace_type
  _atom_site_B_iso_or_equiv
  _atom_site_type_symbol
  C1       1.0000 0.44097  0.09135  0.94248  Biso   1.000  C
  C2       1.0000 0.49850  0.05750  0.14886  Biso   1.000  C
  C3       1.0000 0.34962  0.85114  0.90865  Biso   1.000  C
  C4       1.0000 0.65035  0.55902  0.50148  Biso   1.000  C
  C5       1.0000 0.90865  0.34963  0.85114  Biso   1.000  C
  C6       1.0000 0.05749  0.14886  0.49849  Biso   1.000  C
  C7       1.0000 0.50148  0.65035  0.55902  Biso   1.000  C
  C8       1.0000 0.09135  0.94248  0.44097  Biso   1.000  C
  C9       1.0000 0.94248  0.44097  0.09135  Biso   1.000  C
  C10      1.0000 0.55902  0.50148  0.65035  Biso   1.000  C
  C11      1.0000 0.14886  0.49849  0.05750  Biso   1.000  C
  C12      1.0000 0.85114  0.90865  0.34962  Biso   1.000  C
  C13      1.0000 0.55903  0.90865  0.05752  Biso   1.000  C
  C14      1.0000 0.50150  0.94250  0.85114  Biso   1.000  C
  C15      1.0000 0.65038  0.14886  0.09135  Biso   1.000  C
  C16      1.0000 0.34965  0.44098  0.49852  Biso   1.000  C
  C17      1.0000 0.09135  0.65037  0.14886  Biso   1.000  C
  C18      1.0000 0.94251  0.85114  0.50151  Biso   1.000  C
  C19      1.0000 0.49852  0.34965  0.44098  Biso   1.000  C
  C20      1.0000 0.90865  0.05752  0.55903  Biso   1.000  C
  C21      1.0000 0.05752  0.55903  0.90865  Biso   1.000  C
  C22      1.0000 0.44098  0.49852  0.34965  Biso   1.000  C
  C23      1.0000 0.85114  0.50151  0.94250  Biso   1.000  C
  C24      1.0000 0.14886  0.09135  0.65038  Biso   1.000  C
  C25      1.0000 0.49238  0.22979  0.86238  Biso   1.000  C
  C26      1.0000 0.63002  0.13761  0.36738  Biso   1.000  C
  C27      1.0000 0.26266  0.63264  0.77025  Biso   1.000  C
  C28      1.0000 0.73738  0.50760  0.36999  Biso   1.000  C
  C29      1.0000 0.77025  0.26266  0.63264  Biso   1.000  C
  C30      1.0000 0.13761  0.36738  0.63002  Biso   1.000  C
  C31      1.0000 0.36999  0.73738  0.50759  Biso   1.000  C
  C32      1.0000 0.22979  0.86238  0.49238  Biso   1.000  C
  C33      1.0000 0.86238  0.49238  0.22979  Biso   1.000  C
  C34      1.0000 0.50760  0.36999  0.73738  Biso   1.000  C
  C35      1.0000 0.36738  0.63002  0.13761  Biso   1.000  C
  C36      1.0000 0.63263  0.77024  0.26266  Biso   1.000  C
  C37      1.0000 0.50762  0.77021  0.13762  Biso   1.000  C
  C38      1.0000 0.36998  0.86239  0.63262  Biso   1.000  C
  C39      1.0000 0.73734  0.36736  0.22975  Biso   1.000  C
  C40      1.0000 0.26262  0.49240  0.63001  Biso   1.000  C
  C41      1.0000 0.22975  0.73734  0.36736  Biso   1.000  C
  C42      1.0000 0.86239  0.63262  0.36998  Biso   1.000  C
  C43      1.0000 0.63001  0.26262  0.49241  Biso   1.000  C
  C44      1.0000 0.77021  0.13762  0.50762  Biso   1.000  C
  C45      1.0000 0.13762  0.50762  0.77021  Biso   1.000  C
  C46      1.0000 0.49240  0.63001  0.26262  Biso   1.000  C
  C47      1.0000 0.63262  0.36998  0.86239  Biso   1.000  C
  C48      1.0000 0.36737  0.22976  0.73734  Biso   1.000  C
  C49      1.0000 0.47013  0.20473  0.95130  Biso   1.000  C
  C50      1.0000 0.51886  0.04871  0.25344  Biso   1.000  C
  C51      1.0000 0.26542  0.74659  0.79530  Biso   1.000  C
  C52      1.0000 0.73459  0.52988  0.48117  Biso   1.000  C
  C53      1.0000 0.79530  0.26542  0.74659  Biso   1.000  C
  C54      1.0000 0.04871  0.25343  0.51886  Biso   1.000  C
  C55      1.0000 0.48117  0.73459  0.52988  Biso   1.000  C
  C56      1.0000 0.20473  0.95130  0.47012  Biso   1.000  C
  C57      1.0000 0.95130  0.47012  0.20473  Biso   1.000  C
  C58      1.0000 0.52988  0.48117  0.73459  Biso   1.000  C
  C59      1.0000 0.25344  0.51886  0.04871  Biso   1.000  C
  C60      1.0000 0.74659  0.79529  0.26542  Biso   1.000  C
  C61      1.0000 0.52987  0.79527  0.04870  Biso   1.000  C
  C62      1.0000 0.48114  0.95129  0.74656  Biso   1.000  C
  C63      1.0000 0.73458  0.25341  0.20470  Biso   1.000  C
  C64      1.0000 0.26541  0.47012  0.51883  Biso   1.000  C
  C65      1.0000 0.20470  0.73458  0.25341  Biso   1.000  C
  C66      1.0000 0.95129  0.74657  0.48114  Biso   1.000  C
  C67      1.0000 0.51883  0.26541  0.47012  Biso   1.000  C
  C68      1.0000 0.79527  0.04870  0.52988  Biso   1.000  C
  C69      1.0000 0.04870  0.52988  0.79527  Biso   1.000  C
  C70      1.0000 0.47012  0.51883  0.26541  Biso   1.000  C
  C71      1.0000 0.74656  0.48114  0.95129  Biso   1.000  C
  C72      1.0000 0.25341  0.20471  0.73458  Biso   1.000  C
  C73      1.0000 0.44553  0.06966  0.88147  Biso   1.000  C
  C74      1.0000 0.56407  0.11850  0.18816  Biso   1.000  C
  C75      1.0000 0.37591  0.81184  0.93034  Biso   1.000  C
  C76      1.0000 0.62410  0.55446  0.43591  Biso   1.000  C
  C77      1.0000 0.93034  0.37591  0.81184  Biso   1.000  C
  C78      1.0000 0.11850  0.18815  0.56406  Biso   1.000  C
  C79      1.0000 0.43591  0.62410  0.55446  Biso   1.000  C
  C80      1.0000 0.06966  0.88146  0.44553  Biso   1.000  C
  C81      1.0000 0.88147  0.44553  0.06966  Biso   1.000  C
  C82      1.0000 0.55447  0.43591  0.62411  Biso   1.000  C
  C83      1.0000 0.18815  0.56406  0.11850  Biso   1.000  C
  C84      1.0000 0.81184  0.93034  0.37591  Biso   1.000  C
  C85      1.0000 0.55447  0.93034  0.11853  Biso   1.000  C
  C86      1.0000 0.43593  0.88150  0.81184  Biso   1.000  C
  C87      1.0000 0.62409  0.18816  0.06966  Biso   1.000  C
  C88      1.0000 0.37590  0.44554  0.56409  Biso   1.000  C
  C89      1.0000 0.06966  0.62409  0.18816  Biso   1.000  C
  C90      1.0000 0.88150  0.81185  0.43594  Biso   1.000  C
  C91      1.0000 0.56409  0.37590  0.44554  Biso   1.000  C
  C92      1.0000 0.93034  0.11854  0.55447  Biso   1.000  C
  C93      1.0000 0.11853  0.55447  0.93034  Biso   1.000  C
  C94      1.0000 0.44553  0.56409  0.37589  Biso   1.000  C
  C95      1.0000 0.81185  0.43594  0.88150  Biso   1.000  C
  C96      1.0000 0.18816  0.06966  0.62409  Biso   1.000  C
  C97      1.0000 0.45296  0.15954  0.97654  Biso   1.000  C
  C98      1.0000 0.47644  0.02347  0.18302  Biso   1.000  C
  C99      1.0000 0.29342  0.81701  0.84047  Biso   1.000  C
  C100     1.0000 0.70657  0.54705  0.52357  Biso   1.000  C
  C101     1.0000 0.84047  0.29342  0.81700  Biso   1.000  C
  C102     1.0000 0.02346  0.18302  0.47644  Biso   1.000  C
  C103     1.0000 0.52357  0.70657  0.54705  Biso   1.000  C
  C104     1.0000 0.15954  0.97654  0.45296  Biso   1.000  C
  C105     1.0000 0.97654  0.45296  0.15954  Biso   1.000  C
  C106     1.0000 0.54706  0.52357  0.70657  Biso   1.000  C
  C107     1.0000 0.18302  0.47644  0.02346  Biso   1.000  C
  C108     1.0000 0.81700  0.84046  0.29342  Biso   1.000  C
  C109     1.0000 0.54704  0.84046  0.02346  Biso   1.000  C
  C110     1.0000 0.52356  0.97653  0.81698  Biso   1.000  C
  C111     1.0000 0.70658  0.18299  0.15953  Biso   1.000  C
  C112     1.0000 0.29343  0.45295  0.47643  Biso   1.000  C
  C113     1.0000 0.15953  0.70658  0.18300  Biso   1.000  C
  C114     1.0000 0.97654  0.81698  0.52356  Biso   1.000  C
  C115     1.0000 0.47643  0.29343  0.45295  Biso   1.000  C
  C116     1.0000 0.84046  0.02346  0.54704  Biso   1.000  C
  C117     1.0000 0.02346  0.54704  0.84046  Biso   1.000  C
  C118     1.0000 0.45294  0.47643  0.29343  Biso   1.000  C
  C119     1.0000 0.81698  0.52356  0.97654  Biso   1.000  C
  C120     1.0000 0.18300  0.15954  0.70658  Biso   1.000  C
  C121     1.0000 0.46303  0.11470  0.85629  Biso   1.000  C
  C122     1.0000 0.60676  0.14368  0.25836  Biso   1.000  C
  C123     1.0000 0.34840  0.74164  0.88531  Biso   1.000  C
  C124     1.0000 0.65164  0.53696  0.39324  Biso   1.000  C
  C125     1.0000 0.88531  0.34840  0.74164  Biso   1.000  C
  C126     1.0000 0.14368  0.25836  0.60675  Biso   1.000  C
  C127     1.0000 0.39324  0.65165  0.53696  Biso   1.000  C
  C128     1.0000 0.11470  0.85629  0.46303  Biso   1.000  C
  C129     1.0000 0.85629  0.46303  0.11470  Biso   1.000  C
  C130     1.0000 0.53696  0.39324  0.65165  Biso   1.000  C
  C131     1.0000 0.25836  0.60675  0.14368  Biso   1.000  C
  C132     1.0000 0.74164  0.88531  0.34840  Biso   1.000  C
  C133     1.0000 0.53697  0.88530  0.14371  Biso   1.000  C
  C134     1.0000 0.39324  0.85632  0.74164  Biso   1.000  C
  C135     1.0000 0.65160  0.25836  0.11469  Biso   1.000  C
  C136     1.0000 0.34836  0.46304  0.60676  Biso   1.000  C
  C137     1.0000 0.11469  0.65160  0.25836  Biso   1.000  C
  C138     1.0000 0.85632  0.74164  0.39325  Biso   1.000  C
  C139     1.0000 0.60676  0.34835  0.46304  Biso   1.000  C
  C140     1.0000 0.88530  0.14371  0.53697  Biso   1.000  C
  C141     1.0000 0.14371  0.53697  0.88530  Biso   1.000  C
  C142     1.0000 0.46304  0.60676  0.34835  Biso   1.000  C
  C143     1.0000 0.74164  0.39325  0.85632  Biso   1.000  C
  C144     1.0000 0.25836  0.11469  0.65160  Biso   1.000  C
  C145     1.0000 0.38959  0.97200  0.92801  Biso   1.000  C
  C146     1.0000 0.46163  0.07197  0.04398  Biso   1.000  C
  C147     1.0000 0.41763  0.95600  0.02800  Biso   1.000  C
  C148     1.0000 0.58232  0.61033  0.53834  Biso   1.000  C
  C149     1.0000 0.02800  0.41763  0.95600  Biso   1.000  C
  C150     1.0000 0.07197  0.04398  0.46163  Biso   1.000  C
  C151     1.0000 0.53834  0.58231  0.61033  Biso   1.000  C
  C152     1.0000 0.97200  0.92801  0.38959  Biso   1.000  C
  C153     1.0000 0.92801  0.38959  0.97200  Biso   1.000  C
  C154     1.0000 0.61033  0.53834  0.58232  Biso   1.000  C
  C155     1.0000 0.04398  0.46163  0.07197  Biso   1.000  C
  C156     1.0000 0.95600  0.02799  0.41763  Biso   1.000  C
  C157     1.0000 0.61041  0.02800  0.07199  Biso   1.000  C
  C158     1.0000 0.53837  0.92803  0.95602  Biso   1.000  C
  C159     1.0000 0.58237  0.04400  0.97200  Biso   1.000  C
  C160     1.0000 0.41768  0.38967  0.46166  Biso   1.000  C
  C161     1.0000 0.97200  0.58237  0.04400  Biso   1.000  C
  C162     1.0000 0.92803  0.95602  0.53837  Biso   1.000  C
  C163     1.0000 0.46166  0.41769  0.38967  Biso   1.000  C
  C164     1.0000 0.02800  0.07199  0.61041  Biso   1.000  C
  C165     1.0000 0.07199  0.61041  0.02800  Biso   1.000  C
  C166     1.0000 0.38967  0.46166  0.41768  Biso   1.000  C
  C167     1.0000 0.95602  0.53837  0.92803  Biso   1.000  C
  C168     1.0000 0.04400  0.97201  0.58237  Biso   1.000  C
  C169     1.0000 0.47589  0.18285  0.89119  Biso   1.000  C
  C170     1.0000 0.58474  0.10880  0.29164  Biso   1.000  C
  C171     1.0000 0.29310  0.70838  0.81717  Biso   1.000  C
  C172     1.0000 0.70694  0.52410  0.41529  Biso   1.000  C
  C173     1.0000 0.81717  0.29310  0.70837  Biso   1.000  C
  C174     1.0000 0.10880  0.29164  0.58473  Biso   1.000  C
  C175     1.0000 0.41529  0.70694  0.52410  Biso   1.000  C
  C176     1.0000 0.18285  0.89119  0.47589  Biso   1.000  C
  C177     1.0000 0.89119  0.47589  0.18285  Biso   1.000  C
  C178     1.0000 0.52410  0.41529  0.70694  Biso   1.000  C
  C179     1.0000 0.29164  0.58473  0.10880  Biso   1.000  C
  C180     1.0000 0.70837  0.81717  0.29310  Biso   1.000  C
  C181     1.0000 0.52411  0.81715  0.10881  Biso   1.000  C
  C182     1.0000 0.41526  0.89120  0.70836  Biso   1.000  C
  C183     1.0000 0.70690  0.29162  0.18283  Biso   1.000  C
  C184     1.0000 0.29306  0.47590  0.58471  Biso   1.000  C
  C185     1.0000 0.18283  0.70690  0.29163  Biso   1.000  C
  C186     1.0000 0.89120  0.70836  0.41527  Biso   1.000  C
  C187     1.0000 0.58471  0.29306  0.47590  Biso   1.000  C
  C188     1.0000 0.81715  0.10881  0.52411  Biso   1.000  C
  C189     1.0000 0.10881  0.52411  0.81715  Biso   1.000  C
  C190     1.0000 0.47590  0.58471  0.29306  Biso   1.000  C
  C191     1.0000 0.70836  0.41527  0.89120  Biso   1.000  C
  C192     1.0000 0.29163  0.18283  0.70690  Biso   1.000  C
  C193     1.0000 0.42874  0.04460  0.97166  Biso   1.000  C
  C194     1.0000 0.45708  0.02832  0.07292  Biso   1.000  C
  C195     1.0000 0.38413  0.92707  0.95540  Biso   1.000  C
  C196     1.0000 0.61580  0.57122  0.54287  Biso   1.000  C
  C197     1.0000 0.95540  0.38414  0.92707  Biso   1.000  C
  C198     1.0000 0.02831  0.07292  0.45708  Biso   1.000  C
  C199     1.0000 0.54287  0.61580  0.57122  Biso   1.000  C
  C200     1.0000 0.04459  0.97166  0.42874  Biso   1.000  C
  C201     1.0000 0.97167  0.42874  0.04460  Biso   1.000  C
  C202     1.0000 0.57122  0.54287  0.61580  Biso   1.000  C
  C203     1.0000 0.07292  0.45708  0.02831  Biso   1.000  C
  C204     1.0000 0.92707  0.95540  0.38413  Biso   1.000  C
  C205     1.0000 0.57126  0.95540  0.02834  Biso   1.000  C
  C206     1.0000 0.54292  0.97168  0.92708  Biso   1.000  C
  C207     1.0000 0.61587  0.07293  0.04460  Biso   1.000  C
  C208     1.0000 0.38420  0.42878  0.45713  Biso   1.000  C
  C209     1.0000 0.04460  0.61586  0.07293  Biso   1.000  C
  C210     1.0000 0.97169  0.92708  0.54292  Biso   1.000  C
  C211     1.0000 0.45713  0.38420  0.42878  Biso   1.000  C
  C212     1.0000 0.95541  0.02834  0.57126  Biso   1.000  C
  C213     1.0000 0.02833  0.57126  0.95540  Biso   1.000  C
  C214     1.0000 0.42878  0.45713  0.38420  Biso   1.000  C
  C215     1.0000 0.92708  0.54292  0.97169  Biso   1.000  C
  C216     1.0000 0.07293  0.04460  0.61587  Biso   1.000  C
  Cu1      1.0000 0.49999  0.34500  0.84499  Biso   1.000  Cu
  Cu2      1.0000 0.65500  0.15501  0.50001  Biso   1.000  Cu
  Cu3      1.0000 0.15501  0.50001  0.65500  Biso   1.000  Cu
  Cu4      1.0000 0.84499  0.49999  0.34500  Biso   1.000  Cu
  Cu5      1.0000 0.34500  0.84499  0.49999  Biso   1.000  Cu
  Cu6      1.0000 0.50001  0.65500  0.15501  Biso   1.000  Cu
  Cu7      1.0000 0.49998  0.25507  0.75505  Biso   1.000  Cu
  Cu8      1.0000 0.74493  0.24495  0.50002  Biso   1.000  Cu
  Cu9      1.0000 0.24495  0.50002  0.74493  Biso   1.000  Cu
  Cu10     1.0000 0.75505  0.49998  0.25507  Biso   1.000  Cu
  Cu11     1.0000 0.25507  0.75505  0.49998  Biso   1.000  Cu
  Cu12     1.0000 0.50002  0.74493  0.24495  Biso   1.000  Cu
  H1       1.0000 0.47900  0.25721  0.97742  Biso   1.000  H
  H2       1.0000 0.50163  0.02260  0.27981  Biso   1.000  H
  H3       1.0000 0.22181  0.72024  0.74283  Biso   1.000  H
  H4       1.0000 0.77820  0.52102  0.49843  Biso   1.000  H
  H5       1.0000 0.74283  0.22181  0.72023  Biso   1.000  H
  H6       1.0000 0.02260  0.27981  0.50162  Biso   1.000  H
  H7       1.0000 0.49843  0.77820  0.52101  Biso   1.000  H
  H8       1.0000 0.25721  0.97742  0.47900  Biso   1.000  H
  H9       1.0000 0.97742  0.47900  0.25721  Biso   1.000  H
  H10      1.0000 0.52101  0.49842  0.77820  Biso   1.000  H
  H11      1.0000 0.27981  0.50163  0.02260  Biso   1.000  H
  H12      1.0000 0.72023  0.74283  0.22181  Biso   1.000  H
  H13      1.0000 0.52100  0.74279  0.02258  Biso   1.000  H
  H14      1.0000 0.49837  0.97740  0.72019  Biso   1.000  H
  H15      1.0000 0.77819  0.27976  0.25717  Biso   1.000  H
  H16      1.0000 0.22180  0.47898  0.50157  Biso   1.000  H
  H17      1.0000 0.25717  0.77819  0.27977  Biso   1.000  H
  H18      1.0000 0.97740  0.72019  0.49838  Biso   1.000  H
  H19      1.0000 0.50157  0.22180  0.47899  Biso   1.000  H
  H20      1.0000 0.74279  0.02258  0.52100  Biso   1.000  H
  H21      1.0000 0.02258  0.52100  0.74279  Biso   1.000  H
  H22      1.0000 0.47899  0.50158  0.22180  Biso   1.000  H
  H23      1.0000 0.72019  0.49837  0.97740  Biso   1.000  H
  H24      1.0000 0.27977  0.25717  0.77819  Biso   1.000  H
  H25      1.0000 0.43752  0.01769  0.85466  Biso   1.000  H
  H26      1.0000 0.58284  0.14530  0.16297  Biso   1.000  H
  H27      1.0000 0.41988  0.83702  0.98231  Biso   1.000  H
  H28      1.0000 0.58015  0.56249  0.41713  Biso   1.000  H
  H29      1.0000 0.98231  0.41988  0.83702  Biso   1.000  H
  H30      1.0000 0.14529  0.16297  0.58283  Biso   1.000  H
  H31      1.0000 0.41713  0.58015  0.56249  Biso   1.000  H
  H32      1.0000 0.01769  0.85466  0.43752  Biso   1.000  H
  H33      1.0000 0.85467  0.43752  0.01769  Biso   1.000  H
  H34      1.0000 0.56250  0.41714  0.58016  Biso   1.000  H
  H35      1.0000 0.16297  0.58283  0.14529  Biso   1.000  H
  H36      1.0000 0.83702  0.98230  0.41987  Biso   1.000  H
  H37      1.0000 0.56248  0.98231  0.14534  Biso   1.000  H
  H38      1.0000 0.41716  0.85470  0.83703  Biso   1.000  H
  H39      1.0000 0.58012  0.16298  0.01769  Biso   1.000  H
  H40      1.0000 0.41985  0.43751  0.58287  Biso   1.000  H
  H41      1.0000 0.01769  0.58012  0.16298  Biso   1.000  H
  H42      1.0000 0.85471  0.83703  0.41717  Biso   1.000  H
  H43      1.0000 0.58287  0.41985  0.43751  Biso   1.000  H
  H44      1.0000 0.98231  0.14534  0.56248  Biso   1.000  H
  H45      1.0000 0.14533  0.56248  0.98231  Biso   1.000  H
  H46      1.0000 0.43750  0.58286  0.41984  Biso   1.000  H
  H47      1.0000 0.83703  0.41717  0.85471  Biso   1.000  H
  H48      1.0000 0.16298  0.01770  0.58013  Biso   1.000  H
  H49      1.0000 0.44848  0.17704  0.02305  Biso   1.000  H
  H50      1.0000 0.42544  0.97698  0.15405  Biso   1.000  H
  H51      1.0000 0.27141  0.84600  0.82295  Biso   1.000  H
  H52      1.0000 0.72856  0.55158  0.57458  Biso   1.000  H
  H53      1.0000 0.82296  0.27141  0.84600  Biso   1.000  H
  H54      1.0000 0.97697  0.15405  0.42544  Biso   1.000  H
  H55      1.0000 0.57458  0.72856  0.55158  Biso   1.000  H
  H56      1.0000 0.17704  0.02305  0.44848  Biso   1.000  H
  H57      1.0000 0.02305  0.44848  0.17704  Biso   1.000  H
  H58      1.0000 0.55158  0.57458  0.72857  Biso   1.000  H
  H59      1.0000 0.15405  0.42544  0.97698  Biso   1.000  H
  H60      1.0000 0.84599  0.82295  0.27140  Biso   1.000  H
  H61      1.0000 0.55152  0.82296  0.97695  Biso   1.000  H
  H62      1.0000 0.57456  0.02302  0.84595  Biso   1.000  H
  H63      1.0000 0.72859  0.15400  0.17705  Biso   1.000  H
  H64      1.0000 0.27144  0.44842  0.42542  Biso   1.000  H
  H65      1.0000 0.17704  0.72859  0.15400  Biso   1.000  H
  H66      1.0000 0.02303  0.84595  0.57456  Biso   1.000  H
  H67      1.0000 0.42542  0.27144  0.44842  Biso   1.000  H
  H68      1.0000 0.82296  0.97695  0.55152  Biso   1.000  H
  H69      1.0000 0.97695  0.55152  0.82296  Biso   1.000  H
  H70      1.0000 0.44842  0.42542  0.27143  Biso   1.000  H
  H71      1.0000 0.84595  0.57456  0.02302  Biso   1.000  H
  H72      1.0000 0.15401  0.17705  0.72860  Biso   1.000  H
  H73      1.0000 0.46722  0.09777  0.80960  Biso   1.000  H
  H74      1.0000 0.65763  0.19037  0.28809  Biso   1.000  H
  H75      1.0000 0.36956  0.71190  0.90225  Biso   1.000  H
  H76      1.0000 0.63053  0.53278  0.34236  Biso   1.000  H
  H77      1.0000 0.90226  0.36956  0.71190  Biso   1.000  H
  H78      1.0000 0.19037  0.28808  0.65762  Biso   1.000  H
  H79      1.0000 0.34236  0.63053  0.53277  Biso   1.000  H
  H80      1.0000 0.09777  0.80959  0.46722  Biso   1.000  H
  H81      1.0000 0.80960  0.46723  0.09777  Biso   1.000  H
  H82      1.0000 0.53278  0.34236  0.63053  Biso   1.000  H
  H83      1.0000 0.28809  0.65763  0.19037  Biso   1.000  H
  H84      1.0000 0.71190  0.90225  0.36956  Biso   1.000  H
  H85      1.0000 0.53278  0.90223  0.19040  Biso   1.000  H
  H86      1.0000 0.34237  0.80963  0.71191  Biso   1.000  H
  H87      1.0000 0.63044  0.28810  0.09775  Biso   1.000  H
  H88      1.0000 0.36947  0.46722  0.65764  Biso   1.000  H
  H89      1.0000 0.09774  0.63044  0.28810  Biso   1.000  H
  H90      1.0000 0.80963  0.71192  0.34238  Biso   1.000  H
  H91      1.0000 0.65764  0.36947  0.46723  Biso   1.000  H
  H92      1.0000 0.90223  0.19041  0.53278  Biso   1.000  H
  H93      1.0000 0.19040  0.53277  0.90223  Biso   1.000  H
  H94      1.0000 0.46722  0.65764  0.36947  Biso   1.000  H
  H95      1.0000 0.71191  0.34237  0.80963  Biso   1.000  H
  H96      1.0000 0.28810  0.09775  0.63044  Biso   1.000  H
  H97      1.0000 0.36529  0.95017  0.87192  Biso   1.000  H
  H98      1.0000 0.49350  0.12806  0.07820  Biso   1.000  H
  H99      1.0000 0.41522  0.92176  0.04985  Biso   1.000  H
  H100     1.0000 0.58470  0.63459  0.50649  Biso   1.000  H
  H101     1.0000 0.04985  0.41522  0.92175  Biso   1.000  H
  H102     1.0000 0.12806  0.07820  0.49350  Biso   1.000  H
  H103     1.0000 0.50649  0.58470  0.63458  Biso   1.000  H
  H104     1.0000 0.95017  0.87192  0.36529  Biso   1.000  H
  H105     1.0000 0.87192  0.36529  0.95017  Biso   1.000  H
  H106     1.0000 0.63458  0.50649  0.58470  Biso   1.000  H
  H107     1.0000 0.07821  0.49350  0.12806  Biso   1.000  H
  H108     1.0000 0.92175  0.04984  0.41522  Biso   1.000  H
  H109     1.0000 0.63471  0.04983  0.12808  Biso   1.000  H
  H110     1.0000 0.50650  0.87194  0.92180  Biso   1.000  H
  H111     1.0000 0.58478  0.07824  0.95015  Biso   1.000  H
  H112     1.0000 0.41530  0.36541  0.49351  Biso   1.000  H
  H113     1.0000 0.95015  0.58478  0.07825  Biso   1.000  H
  H114     1.0000 0.87194  0.92180  0.50650  Biso   1.000  H
  H115     1.0000 0.49351  0.41530  0.36542  Biso   1.000  H
  H116     1.0000 0.04983  0.12808  0.63471  Biso   1.000  H
  H117     1.0000 0.12808  0.63471  0.04983  Biso   1.000  H
  H118     1.0000 0.36542  0.49351  0.41530  Biso   1.000  H
  H119     1.0000 0.92179  0.50650  0.87194  Biso   1.000  H
  H120     1.0000 0.07825  0.95016  0.58478  Biso   1.000  H
  O1       1.0000 0.49801  0.28954  0.89256  Biso   1.000  O
  O2       1.0000 0.60544  0.10747  0.39697  Biso   1.000  O
  O3       1.0000 0.20851  0.60305  0.71052  Biso   1.000  O
  O4       1.0000 0.79152  0.50200  0.39456  Biso   1.000  O
  O5       1.0000 0.71053  0.20851  0.60305  Biso   1.000  O
  O6       1.0000 0.10747  0.39697  0.60544  Biso   1.000  O
  O7       1.0000 0.39456  0.79152  0.50200  Biso   1.000  O
  O8       1.0000 0.28954  0.89255  0.49801  Biso   1.000  O
  O9       1.0000 0.89256  0.49801  0.28954  Biso   1.000  O
  O10      1.0000 0.50200  0.39456  0.79152  Biso   1.000  O
  O11      1.0000 0.39697  0.60544  0.10747  Biso   1.000  O
  O12      1.0000 0.60305  0.71052  0.20851  Biso   1.000  O
  O13      1.0000 0.50199  0.71046  0.10744  Biso   1.000  O
  O14      1.0000 0.39456  0.89253  0.60303  Biso   1.000  O
  O15      1.0000 0.79149  0.39695  0.28948  Biso   1.000  O
  O16      1.0000 0.20848  0.49800  0.60544  Biso   1.000  O
  O17      1.0000 0.28947  0.79149  0.39695  Biso   1.000  O
  O18      1.0000 0.89253  0.60303  0.39456  Biso   1.000  O
  O19      1.0000 0.60544  0.20848  0.49800  Biso   1.000  O
  O20      1.0000 0.71046  0.10745  0.50199  Biso   1.000  O
  O21      1.0000 0.10744  0.50199  0.71046  Biso   1.000  O
  O22      1.0000 0.49800  0.60544  0.20848  Biso   1.000  O
  O23      1.0000 0.60303  0.39456  0.89253  Biso   1.000  O
  O24      1.0000 0.39695  0.28948  0.79149  Biso   1.000  O
  O25      1.0000 0.49822  0.20595  0.80828  Biso   1.000  O
  O26      1.0000 0.68997  0.19169  0.39764  Biso   1.000  O
  O27      1.0000 0.29238  0.60239  0.79407  Biso   1.000  O
  O28      1.0000 0.70767  0.50171  0.31003  Biso   1.000  O
  O29      1.0000 0.79407  0.29238  0.60239  Biso   1.000  O
  O30      1.0000 0.19169  0.39764  0.68997  Biso   1.000  O
  O31      1.0000 0.31003  0.70767  0.50171  Biso   1.000  O
  O32      1.0000 0.20595  0.80828  0.49822  Biso   1.000  O
  O33      1.0000 0.80828  0.49822  0.20595  Biso   1.000  O
  O34      1.0000 0.50171  0.31004  0.70768  Biso   1.000  O
  O35      1.0000 0.39764  0.68997  0.19169  Biso   1.000  O
  O36      1.0000 0.60239  0.79407  0.29238  Biso   1.000  O
  O37      1.0000 0.50178  0.79405  0.19172  Biso   1.000  O
  O38      1.0000 0.31003  0.80831  0.60236  Biso   1.000  O
  O39      1.0000 0.70762  0.39761  0.20593  Biso   1.000  O
  O40      1.0000 0.29233  0.49829  0.68997  Biso   1.000  O
  O41      1.0000 0.20593  0.70762  0.39761  Biso   1.000  O
  O42      1.0000 0.80831  0.60236  0.31003  Biso   1.000  O
  O43      1.0000 0.68997  0.29233  0.49829  Biso   1.000  O
  O44      1.0000 0.79405  0.19172  0.50178  Biso   1.000  O
  O45      1.0000 0.19172  0.50178  0.79405  Biso   1.000  O
  O46      1.0000 0.49829  0.68996  0.29232  Biso   1.000  O
  O47      1.0000 0.60236  0.31003  0.80831  Biso   1.000  O
  O48      1.0000 0.39761  0.20593  0.70762  Biso   1.000  O
