data_image0
_cell_length_a       17.0708
_cell_length_b       38.7606
_cell_length_c       38.7606
_cell_angle_alpha    120
_cell_angle_beta     90
_cell_angle_gamma    90

_symmetry_space_group_name_H-M    "P 1"
_symmetry_int_tables_number       1

loop_
  _symmetry_equiv_pos_as_xyz
  'x, y, z'

loop_
  _atom_site_label
  _atom_site_occupancy
  _atom_site_fract_x
  _atom_site_fract_y
  _atom_site_fract_z
  _atom_site_thermal_displace_type
  _atom_site_B_iso_or_equiv
  _atom_site_type_symbol
  Zr1      1.0000 0.90404  0.54236  0.99999  Biso   1.000  Zr
  Zr2      1.0000 0.90404  0.00001  0.45764  Biso   1.000  Zr
  Zr3      1.0000 0.90406  0.45764  0.45764  Biso   1.000  Zr
  Zr4      1.0000 0.90404  0.45764  0.00001  Biso   1.000  Zr
  Zr5      1.0000 0.90404  0.99999  0.54236  Biso   1.000  Zr
  Zr6      1.0000 0.90406  0.54236  0.54236  Biso   1.000  Zr
  Zr7      1.0000 0.09596  0.99999  0.54236  Biso   1.000  Zr
  Zr8      1.0000 0.09594  0.45764  0.45764  Biso   1.000  Zr
  Zr9      1.0000 0.09596  0.54236  0.99999  Biso   1.000  Zr
  Zr10     1.0000 0.09596  0.45764  0.00001  Biso   1.000  Zr
  Zr11     1.0000 0.09596  0.00001  0.45764  Biso   1.000  Zr
  Zr12     1.0000 0.09594  0.54236  0.54236  Biso   1.000  Zr
  Zr13     1.0000 1.00000  0.53573  0.07144  Biso   1.000  Zr
  Zr14     1.0000 0.00000  0.07144  0.53573  Biso   1.000  Zr
  Zr15     1.0000 0.00000  0.53572  0.46428  Biso   1.000  Zr
  Zr16     1.0000 1.00000  0.46427  0.92856  Biso   1.000  Zr
  Zr17     1.0000 0.00000  0.92856  0.46427  Biso   1.000  Zr
  Zr18     1.0000 1.00000  0.46428  0.53572  Biso   1.000  Zr
  H1       1.0000 0.74532  0.64280  0.07886  Biso   1.000  H
  H2       1.0000 0.74530  0.07887  0.43610  Biso   1.000  H
  H3       1.0000 0.74533  0.43607  0.35721  Biso   1.000  H
  H4       1.0000 0.74532  0.35720  0.92114  Biso   1.000  H
  H5       1.0000 0.74530  0.92113  0.56390  Biso   1.000  H
  H6       1.0000 0.74533  0.56393  0.64279  Biso   1.000  H
  H7       1.0000 0.25468  0.07886  0.64280  Biso   1.000  H
  H8       1.0000 0.25467  0.35721  0.43607  Biso   1.000  H
  H9       1.0000 0.25470  0.56390  0.92113  Biso   1.000  H
  H10      1.0000 0.25470  0.43610  0.07887  Biso   1.000  H
  H11      1.0000 0.25468  0.92114  0.35720  Biso   1.000  H
  H12      1.0000 0.25467  0.64279  0.56393  Biso   1.000  H
  H13      1.0000 0.25468  0.35720  0.92114  Biso   1.000  H
  H14      1.0000 0.25470  0.92113  0.56390  Biso   1.000  H
  H15      1.0000 0.25467  0.56393  0.64279  Biso   1.000  H
  H16      1.0000 0.25468  0.64280  0.07886  Biso   1.000  H
  H17      1.0000 0.25470  0.07887  0.43610  Biso   1.000  H
  H18      1.0000 0.25467  0.43607  0.35721  Biso   1.000  H
  H19      1.0000 0.74532  0.92114  0.35720  Biso   1.000  H
  H20      1.0000 0.74533  0.64279  0.56393  Biso   1.000  H
  H21      1.0000 0.74530  0.43610  0.07887  Biso   1.000  H
  H22      1.0000 0.74530  0.56390  0.92113  Biso   1.000  H
  H23      1.0000 0.74532  0.07886  0.64280  Biso   1.000  H
  H24      1.0000 0.74533  0.35721  0.43607  Biso   1.000  H
  H25      1.0000 0.66002  0.69539  0.13073  Biso   1.000  H
  H26      1.0000 0.66001  0.13074  0.43537  Biso   1.000  H
  H27      1.0000 0.66004  0.43535  0.30461  Biso   1.000  H
  H28      1.0000 0.66002  0.30461  0.86927  Biso   1.000  H
  H29      1.0000 0.66001  0.86926  0.56463  Biso   1.000  H
  H30      1.0000 0.66004  0.56465  0.69539  Biso   1.000  H
  H31      1.0000 0.33998  0.13073  0.69539  Biso   1.000  H
  H32      1.0000 0.33996  0.30461  0.43535  Biso   1.000  H
  H33      1.0000 0.33999  0.56463  0.86926  Biso   1.000  H
  H34      1.0000 0.33999  0.43537  0.13074  Biso   1.000  H
  H35      1.0000 0.33998  0.86927  0.30461  Biso   1.000  H
  H36      1.0000 0.33996  0.69539  0.56465  Biso   1.000  H
  H37      1.0000 0.33998  0.30461  0.86927  Biso   1.000  H
  H38      1.0000 0.33999  0.86926  0.56463  Biso   1.000  H
  H39      1.0000 0.33996  0.56465  0.69539  Biso   1.000  H
  H40      1.0000 0.33998  0.69539  0.13073  Biso   1.000  H
  H41      1.0000 0.33999  0.13074  0.43537  Biso   1.000  H
  H42      1.0000 0.33996  0.43535  0.30461  Biso   1.000  H
  H43      1.0000 0.66002  0.86927  0.30461  Biso   1.000  H
  H44      1.0000 0.66004  0.69539  0.56465  Biso   1.000  H
  H45      1.0000 0.66001  0.43537  0.13074  Biso   1.000  H
  H46      1.0000 0.66001  0.56463  0.86926  Biso   1.000  H
  H47      1.0000 0.66002  0.13073  0.69539  Biso   1.000  H
  H48      1.0000 0.66004  0.30461  0.43535  Biso   1.000  H
  H49      1.0000 0.78289  0.68382  0.22133  Biso   1.000  H
  H50      1.0000 0.78290  0.22135  0.53752  Biso   1.000  H
  H51      1.0000 0.78290  0.53751  0.31617  Biso   1.000  H
  H52      1.0000 0.78289  0.31618  0.77867  Biso   1.000  H
  H53      1.0000 0.78290  0.77865  0.46248  Biso   1.000  H
  H54      1.0000 0.78290  0.46249  0.68383  Biso   1.000  H
  H55      1.0000 0.21711  0.22133  0.68382  Biso   1.000  H
  H56      1.0000 0.21710  0.31617  0.53751  Biso   1.000  H
  H57      1.0000 0.21710  0.46248  0.77865  Biso   1.000  H
  H58      1.0000 0.21710  0.53752  0.22135  Biso   1.000  H
  H59      1.0000 0.21711  0.77867  0.31618  Biso   1.000  H
  H60      1.0000 0.21710  0.68383  0.46249  Biso   1.000  H
  H61      1.0000 0.21711  0.31618  0.77867  Biso   1.000  H
  H62      1.0000 0.21710  0.77865  0.46248  Biso   1.000  H
  H63      1.0000 0.21710  0.46249  0.68383  Biso   1.000  H
  H64      1.0000 0.21711  0.68382  0.22133  Biso   1.000  H
  H65      1.0000 0.21710  0.22135  0.53752  Biso   1.000  H
  H66      1.0000 0.21710  0.53751  0.31617  Biso   1.000  H
  H67      1.0000 0.78289  0.77867  0.31618  Biso   1.000  H
  H68      1.0000 0.78290  0.68383  0.46249  Biso   1.000  H
  H69      1.0000 0.78290  0.53752  0.22135  Biso   1.000  H
  H70      1.0000 0.78290  0.46248  0.77865  Biso   1.000  H
  H71      1.0000 0.78289  0.22133  0.68382  Biso   1.000  H
  H72      1.0000 0.78290  0.31617  0.53751  Biso   1.000  H
  H73      1.0000 0.86858  0.63161  0.16913  Biso   1.000  H
  H74      1.0000 0.86858  0.16915  0.53755  Biso   1.000  H
  H75      1.0000 0.86858  0.53753  0.36839  Biso   1.000  H
  H76      1.0000 0.86858  0.36839  0.83087  Biso   1.000  H
  H77      1.0000 0.86858  0.83085  0.46245  Biso   1.000  H
  H78      1.0000 0.86858  0.46247  0.63161  Biso   1.000  H
  H79      1.0000 0.13142  0.16913  0.63161  Biso   1.000  H
  H80      1.0000 0.13142  0.36839  0.53753  Biso   1.000  H
  H81      1.0000 0.13142  0.46245  0.83085  Biso   1.000  H
  H82      1.0000 0.13142  0.53755  0.16915  Biso   1.000  H
  H83      1.0000 0.13142  0.83087  0.36839  Biso   1.000  H
  H84      1.0000 0.13142  0.63161  0.46247  Biso   1.000  H
  H85      1.0000 0.13143  0.36839  0.83087  Biso   1.000  H
  H86      1.0000 0.13142  0.83085  0.46245  Biso   1.000  H
  H87      1.0000 0.13142  0.46247  0.63161  Biso   1.000  H
  H88      1.0000 0.13143  0.63161  0.16913  Biso   1.000  H
  H89      1.0000 0.13142  0.16915  0.53755  Biso   1.000  H
  H90      1.0000 0.13142  0.53753  0.36839  Biso   1.000  H
  H91      1.0000 0.86857  0.83087  0.36839  Biso   1.000  H
  H92      1.0000 0.86858  0.63161  0.46247  Biso   1.000  H
  H93      1.0000 0.86858  0.53755  0.16915  Biso   1.000  H
  H94      1.0000 0.86858  0.46245  0.83085  Biso   1.000  H
  H95      1.0000 0.86857  0.16913  0.63161  Biso   1.000  H
  H96      1.0000 0.86858  0.36839  0.53753  Biso   1.000  H
  H97      1.0000 0.77006  0.75672  0.24328  Biso   1.000  H
  H98      1.0000 0.77006  0.24328  0.48656  Biso   1.000  H
  H99      1.0000 0.77006  0.48656  0.24328  Biso   1.000  H
  H100     1.0000 0.77006  0.24328  0.75672  Biso   1.000  H
  H101     1.0000 0.77006  0.75672  0.51344  Biso   1.000  H
  H102     1.0000 0.77006  0.51344  0.75672  Biso   1.000  H
  H103     1.0000 0.22994  0.24328  0.75672  Biso   1.000  H
  H104     1.0000 0.22994  0.24328  0.48656  Biso   1.000  H
  H105     1.0000 0.22994  0.51344  0.75672  Biso   1.000  H
  H106     1.0000 0.22994  0.48656  0.24328  Biso   1.000  H
  H107     1.0000 0.22994  0.75672  0.24328  Biso   1.000  H
  H108     1.0000 0.22994  0.75672  0.51344  Biso   1.000  H
  H109     1.0000 0.57160  0.66636  0.15837  Biso   1.000  H
  H110     1.0000 0.57160  0.15839  0.49205  Biso   1.000  H
  H111     1.0000 0.57159  0.49195  0.33361  Biso   1.000  H
  H112     1.0000 0.57160  0.33364  0.84163  Biso   1.000  H
  H113     1.0000 0.57160  0.84161  0.50795  Biso   1.000  H
  H114     1.0000 0.57159  0.50805  0.66639  Biso   1.000  H
  H115     1.0000 0.42840  0.15837  0.66636  Biso   1.000  H
  H116     1.0000 0.42841  0.33361  0.49195  Biso   1.000  H
  H117     1.0000 0.42840  0.50795  0.84161  Biso   1.000  H
  H118     1.0000 0.42840  0.49205  0.15839  Biso   1.000  H
  H119     1.0000 0.42840  0.84163  0.33364  Biso   1.000  H
  H120     1.0000 0.42841  0.66639  0.50805  Biso   1.000  H
  H121     1.0000 0.42840  0.33364  0.84163  Biso   1.000  H
  H122     1.0000 0.42840  0.84161  0.50795  Biso   1.000  H
  H123     1.0000 0.42841  0.50805  0.66639  Biso   1.000  H
  H124     1.0000 0.42840  0.66636  0.15837  Biso   1.000  H
  H125     1.0000 0.42840  0.15839  0.49205  Biso   1.000  H
  H126     1.0000 0.42841  0.49195  0.33361  Biso   1.000  H
  H127     1.0000 0.57160  0.84163  0.33364  Biso   1.000  H
  H128     1.0000 0.57159  0.66639  0.50805  Biso   1.000  H
  H129     1.0000 0.57160  0.49205  0.15839  Biso   1.000  H
  H130     1.0000 0.57160  0.50795  0.84161  Biso   1.000  H
  H131     1.0000 0.57160  0.15837  0.66636  Biso   1.000  H
  H132     1.0000 0.57159  0.33361  0.49195  Biso   1.000  H
  C1       1.0000 0.86326  0.60231  0.09018  Biso   1.000  C
  C2       1.0000 0.86325  0.09020  0.48791  Biso   1.000  C
  C3       1.0000 0.86326  0.48789  0.39770  Biso   1.000  C
  C4       1.0000 0.86326  0.39769  0.90982  Biso   1.000  C
  C5       1.0000 0.86325  0.90980  0.51209  Biso   1.000  C
  C6       1.0000 0.86326  0.51211  0.60230  Biso   1.000  C
  C7       1.0000 0.13674  0.09018  0.60231  Biso   1.000  C
  C8       1.0000 0.13674  0.39770  0.48789  Biso   1.000  C
  C9       1.0000 0.13675  0.51209  0.90980  Biso   1.000  C
  C10      1.0000 0.13675  0.48791  0.09020  Biso   1.000  C
  C11      1.0000 0.13674  0.90982  0.39769  Biso   1.000  C
  C12      1.0000 0.13674  0.60230  0.51211  Biso   1.000  C
  C13      1.0000 0.13674  0.39769  0.90982  Biso   1.000  C
  C14      1.0000 0.13675  0.90980  0.51209  Biso   1.000  C
  C15      1.0000 0.13674  0.51211  0.60230  Biso   1.000  C
  C16      1.0000 0.13674  0.60231  0.09018  Biso   1.000  C
  C17      1.0000 0.13675  0.09020  0.48791  Biso   1.000  C
  C18      1.0000 0.13674  0.48789  0.39770  Biso   1.000  C
  C19      1.0000 0.86326  0.90982  0.39769  Biso   1.000  C
  C20      1.0000 0.86326  0.60230  0.51211  Biso   1.000  C
  C21      1.0000 0.86325  0.48791  0.09020  Biso   1.000  C
  C22      1.0000 0.86325  0.51209  0.90980  Biso   1.000  C
  C23      1.0000 0.86326  0.09018  0.60231  Biso   1.000  C
  C24      1.0000 0.86326  0.39770  0.48789  Biso   1.000  C
  C25      1.0000 0.81216  0.63398  0.12083  Biso   1.000  C
  C26      1.0000 0.81214  0.12086  0.48689  Biso   1.000  C
  C27      1.0000 0.81216  0.48687  0.36602  Biso   1.000  C
  C28      1.0000 0.81216  0.36602  0.87917  Biso   1.000  C
  C29      1.0000 0.81214  0.87914  0.51311  Biso   1.000  C
  C30      1.0000 0.81216  0.51313  0.63398  Biso   1.000  C
  C31      1.0000 0.18784  0.12083  0.63398  Biso   1.000  C
  C32      1.0000 0.18784  0.36602  0.48687  Biso   1.000  C
  C33      1.0000 0.18786  0.51311  0.87914  Biso   1.000  C
  C34      1.0000 0.18786  0.48689  0.12086  Biso   1.000  C
  C35      1.0000 0.18784  0.87917  0.36602  Biso   1.000  C
  C36      1.0000 0.18784  0.63398  0.51313  Biso   1.000  C
  C37      1.0000 0.18784  0.36602  0.87917  Biso   1.000  C
  C38      1.0000 0.18786  0.87914  0.51311  Biso   1.000  C
  C39      1.0000 0.18784  0.51313  0.63398  Biso   1.000  C
  C40      1.0000 0.18784  0.63398  0.12083  Biso   1.000  C
  C41      1.0000 0.18786  0.12086  0.48689  Biso   1.000  C
  C42      1.0000 0.18784  0.48687  0.36602  Biso   1.000  C
  C43      1.0000 0.81216  0.87917  0.36602  Biso   1.000  C
  C44      1.0000 0.81216  0.63398  0.51313  Biso   1.000  C
  C45      1.0000 0.81214  0.48689  0.12086  Biso   1.000  C
  C46      1.0000 0.81214  0.51311  0.87914  Biso   1.000  C
  C47      1.0000 0.81216  0.12083  0.63398  Biso   1.000  C
  C48      1.0000 0.81216  0.36602  0.48687  Biso   1.000  C
  C49      1.0000 0.75285  0.65193  0.11013  Biso   1.000  C
  C50      1.0000 0.75282  0.11014  0.45824  Biso   1.000  C
  C51      1.0000 0.75285  0.45821  0.34808  Biso   1.000  C
  C52      1.0000 0.75285  0.34807  0.88987  Biso   1.000  C
  C53      1.0000 0.75282  0.88986  0.54176  Biso   1.000  C
  C54      1.0000 0.75285  0.54179  0.65192  Biso   1.000  C
  C55      1.0000 0.24715  0.11013  0.65193  Biso   1.000  C
  C56      1.0000 0.24715  0.34808  0.45821  Biso   1.000  C
  C57      1.0000 0.24718  0.54176  0.88986  Biso   1.000  C
  C58      1.0000 0.24718  0.45824  0.11014  Biso   1.000  C
  C59      1.0000 0.24715  0.88987  0.34807  Biso   1.000  C
  C60      1.0000 0.24715  0.65192  0.54179  Biso   1.000  C
  C61      1.0000 0.24715  0.34807  0.88987  Biso   1.000  C
  C62      1.0000 0.24718  0.88986  0.54176  Biso   1.000  C
  C63      1.0000 0.24715  0.54179  0.65192  Biso   1.000  C
  C64      1.0000 0.24715  0.65193  0.11013  Biso   1.000  C
  C65      1.0000 0.24718  0.11014  0.45824  Biso   1.000  C
  C66      1.0000 0.24715  0.45821  0.34808  Biso   1.000  C
  C67      1.0000 0.75285  0.88987  0.34807  Biso   1.000  C
  C68      1.0000 0.75285  0.65192  0.54179  Biso   1.000  C
  C69      1.0000 0.75282  0.45824  0.11014  Biso   1.000  C
  C70      1.0000 0.75282  0.54176  0.88986  Biso   1.000  C
  C71      1.0000 0.75285  0.11013  0.65193  Biso   1.000  C
  C72      1.0000 0.75285  0.34808  0.45821  Biso   1.000  C
  C73      1.0000 0.70494  0.68111  0.13919  Biso   1.000  C
  C74      1.0000 0.70492  0.13920  0.45811  Biso   1.000  C
  C75      1.0000 0.70496  0.45809  0.31889  Biso   1.000  C
  C76      1.0000 0.70494  0.31889  0.86081  Biso   1.000  C
  C77      1.0000 0.70492  0.86080  0.54189  Biso   1.000  C
  C78      1.0000 0.70496  0.54191  0.68111  Biso   1.000  C
  C79      1.0000 0.29506  0.13919  0.68111  Biso   1.000  C
  C80      1.0000 0.29504  0.31889  0.45809  Biso   1.000  C
  C81      1.0000 0.29508  0.54189  0.86080  Biso   1.000  C
  C82      1.0000 0.29508  0.45811  0.13920  Biso   1.000  C
  C83      1.0000 0.29506  0.86081  0.31889  Biso   1.000  C
  C84      1.0000 0.29504  0.68111  0.54191  Biso   1.000  C
  C85      1.0000 0.29506  0.31889  0.86081  Biso   1.000  C
  C86      1.0000 0.29508  0.86080  0.54189  Biso   1.000  C
  C87      1.0000 0.29504  0.54191  0.68111  Biso   1.000  C
  C88      1.0000 0.29506  0.68111  0.13919  Biso   1.000  C
  C89      1.0000 0.29508  0.13920  0.45811  Biso   1.000  C
  C90      1.0000 0.29504  0.45809  0.31889  Biso   1.000  C
  C91      1.0000 0.70494  0.86081  0.31889  Biso   1.000  C
  C92      1.0000 0.70496  0.68111  0.54191  Biso   1.000  C
  C93      1.0000 0.70492  0.45811  0.13920  Biso   1.000  C
  C94      1.0000 0.70492  0.54189  0.86080  Biso   1.000  C
  C95      1.0000 0.70494  0.13919  0.68111  Biso   1.000  C
  C96      1.0000 0.70496  0.31889  0.45809  Biso   1.000  C
  C97      1.0000 0.71514  0.69316  0.17973  Biso   1.000  C
  C98      1.0000 0.71513  0.17974  0.48659  Biso   1.000  C
  C99      1.0000 0.71515  0.48658  0.30684  Biso   1.000  C
  C100     1.0000 0.71514  0.30684  0.82027  Biso   1.000  C
  C101     1.0000 0.71513  0.82026  0.51341  Biso   1.000  C
  C102     1.0000 0.71515  0.51342  0.69316  Biso   1.000  C
  C103     1.0000 0.28486  0.17973  0.69316  Biso   1.000  C
  C104     1.0000 0.28485  0.30684  0.48658  Biso   1.000  C
  C105     1.0000 0.28487  0.51341  0.82026  Biso   1.000  C
  C106     1.0000 0.28487  0.48659  0.17974  Biso   1.000  C
  C107     1.0000 0.28486  0.82027  0.30684  Biso   1.000  C
  C108     1.0000 0.28485  0.69316  0.51342  Biso   1.000  C
  C109     1.0000 0.28486  0.30684  0.82027  Biso   1.000  C
  C110     1.0000 0.28487  0.82026  0.51341  Biso   1.000  C
  C111     1.0000 0.28485  0.51342  0.69316  Biso   1.000  C
  C112     1.0000 0.28486  0.69316  0.17973  Biso   1.000  C
  C113     1.0000 0.28487  0.17974  0.48659  Biso   1.000  C
  C114     1.0000 0.28485  0.48658  0.30684  Biso   1.000  C
  C115     1.0000 0.71514  0.82027  0.30684  Biso   1.000  C
  C116     1.0000 0.71515  0.69316  0.51342  Biso   1.000  C
  C117     1.0000 0.71513  0.48659  0.17974  Biso   1.000  C
  C118     1.0000 0.71513  0.51341  0.82026  Biso   1.000  C
  C119     1.0000 0.71514  0.17973  0.69316  Biso   1.000  C
  C120     1.0000 0.71515  0.30684  0.48658  Biso   1.000  C
  C121     1.0000 0.77506  0.67507  0.19015  Biso   1.000  C
  C122     1.0000 0.77505  0.19017  0.51510  Biso   1.000  C
  C123     1.0000 0.77506  0.51509  0.32493  Biso   1.000  C
  C124     1.0000 0.77506  0.32493  0.80985  Biso   1.000  C
  C125     1.0000 0.77505  0.80983  0.48490  Biso   1.000  C
  C126     1.0000 0.77506  0.48491  0.67507  Biso   1.000  C
  C127     1.0000 0.22494  0.19015  0.67507  Biso   1.000  C
  C128     1.0000 0.22494  0.32493  0.51509  Biso   1.000  C
  C129     1.0000 0.22495  0.48490  0.80983  Biso   1.000  C
  C130     1.0000 0.22495  0.51510  0.19017  Biso   1.000  C
  C131     1.0000 0.22494  0.80985  0.32493  Biso   1.000  C
  C132     1.0000 0.22494  0.67507  0.48491  Biso   1.000  C
  C133     1.0000 0.22494  0.32493  0.80985  Biso   1.000  C
  C134     1.0000 0.22495  0.80983  0.48490  Biso   1.000  C
  C135     1.0000 0.22494  0.48491  0.67507  Biso   1.000  C
  C136     1.0000 0.22494  0.67507  0.19015  Biso   1.000  C
  C137     1.0000 0.22495  0.19017  0.51510  Biso   1.000  C
  C138     1.0000 0.22494  0.51509  0.32493  Biso   1.000  C
  C139     1.0000 0.77506  0.80985  0.32493  Biso   1.000  C
  C140     1.0000 0.77506  0.67507  0.48491  Biso   1.000  C
  C141     1.0000 0.77505  0.51510  0.19017  Biso   1.000  C
  C142     1.0000 0.77505  0.48490  0.80983  Biso   1.000  C
  C143     1.0000 0.77506  0.19015  0.67507  Biso   1.000  C
  C144     1.0000 0.77506  0.32493  0.51509  Biso   1.000  C
  C145     1.0000 0.82279  0.64588  0.16119  Biso   1.000  C
  C146     1.0000 0.82278  0.16121  0.51534  Biso   1.000  C
  C147     1.0000 0.82279  0.51532  0.35412  Biso   1.000  C
  C148     1.0000 0.82279  0.35412  0.83881  Biso   1.000  C
  C149     1.0000 0.82278  0.83879  0.48466  Biso   1.000  C
  C150     1.0000 0.82279  0.48468  0.64588  Biso   1.000  C
  C151     1.0000 0.17721  0.16119  0.64588  Biso   1.000  C
  C152     1.0000 0.17721  0.35412  0.51532  Biso   1.000  C
  C153     1.0000 0.17722  0.48466  0.83879  Biso   1.000  C
  C154     1.0000 0.17722  0.51534  0.16121  Biso   1.000  C
  C155     1.0000 0.17721  0.83881  0.35412  Biso   1.000  C
  C156     1.0000 0.17721  0.64588  0.48468  Biso   1.000  C
  C157     1.0000 0.17721  0.35412  0.83881  Biso   1.000  C
  C158     1.0000 0.17722  0.83879  0.48466  Biso   1.000  C
  C159     1.0000 0.17721  0.48468  0.64588  Biso   1.000  C
  C160     1.0000 0.17721  0.64588  0.16119  Biso   1.000  C
  C161     1.0000 0.17722  0.16121  0.51534  Biso   1.000  C
  C162     1.0000 0.17721  0.51532  0.35412  Biso   1.000  C
  C163     1.0000 0.82279  0.83881  0.35412  Biso   1.000  C
  C164     1.0000 0.82279  0.64588  0.48468  Biso   1.000  C
  C165     1.0000 0.82278  0.51534  0.16121  Biso   1.000  C
  C166     1.0000 0.82278  0.48466  0.83879  Biso   1.000  C
  C167     1.0000 0.82279  0.16119  0.64588  Biso   1.000  C
  C168     1.0000 0.82279  0.35412  0.51532  Biso   1.000  C
  C169     1.0000 0.66717  0.72503  0.21154  Biso   1.000  C
  C170     1.0000 0.66717  0.21154  0.48651  Biso   1.000  C
  C171     1.0000 0.66718  0.48650  0.27496  Biso   1.000  C
  C172     1.0000 0.66717  0.27497  0.78846  Biso   1.000  C
  C173     1.0000 0.66717  0.78846  0.51349  Biso   1.000  C
  C174     1.0000 0.66718  0.51350  0.72504  Biso   1.000  C
  C175     1.0000 0.33283  0.21154  0.72503  Biso   1.000  C
  C176     1.0000 0.33282  0.27496  0.48650  Biso   1.000  C
  C177     1.0000 0.33283  0.51349  0.78846  Biso   1.000  C
  C178     1.0000 0.33283  0.48651  0.21154  Biso   1.000  C
  C179     1.0000 0.33283  0.78846  0.27497  Biso   1.000  C
  C180     1.0000 0.33282  0.72504  0.51350  Biso   1.000  C
  C181     1.0000 0.33283  0.27497  0.78846  Biso   1.000  C
  C182     1.0000 0.33283  0.78846  0.51349  Biso   1.000  C
  C183     1.0000 0.33282  0.51350  0.72504  Biso   1.000  C
  C184     1.0000 0.33283  0.72503  0.21154  Biso   1.000  C
  C185     1.0000 0.33283  0.21154  0.48651  Biso   1.000  C
  C186     1.0000 0.33282  0.48650  0.27496  Biso   1.000  C
  C187     1.0000 0.66717  0.78846  0.27497  Biso   1.000  C
  C188     1.0000 0.66718  0.72504  0.51350  Biso   1.000  C
  C189     1.0000 0.66717  0.48651  0.21154  Biso   1.000  C
  C190     1.0000 0.66717  0.51349  0.78846  Biso   1.000  C
  C191     1.0000 0.66717  0.21154  0.72503  Biso   1.000  C
  C192     1.0000 0.66718  0.27496  0.48650  Biso   1.000  C
  C193     1.0000 0.58393  0.72483  0.21097  Biso   1.000  C
  C194     1.0000 0.58393  0.21097  0.48614  Biso   1.000  C
  C195     1.0000 0.58393  0.48612  0.27516  Biso   1.000  C
  C196     1.0000 0.58393  0.27517  0.78903  Biso   1.000  C
  C197     1.0000 0.58393  0.78903  0.51386  Biso   1.000  C
  C198     1.0000 0.58393  0.51388  0.72484  Biso   1.000  C
  C199     1.0000 0.41607  0.21097  0.72483  Biso   1.000  C
  C200     1.0000 0.41607  0.27516  0.48612  Biso   1.000  C
  C201     1.0000 0.41607  0.51386  0.78903  Biso   1.000  C
  C202     1.0000 0.41607  0.48614  0.21097  Biso   1.000  C
  C203     1.0000 0.41607  0.78903  0.27517  Biso   1.000  C
  C204     1.0000 0.41607  0.72484  0.51388  Biso   1.000  C
  C205     1.0000 0.41607  0.27517  0.78903  Biso   1.000  C
  C206     1.0000 0.41607  0.78903  0.51386  Biso   1.000  C
  C207     1.0000 0.41607  0.51388  0.72484  Biso   1.000  C
  C208     1.0000 0.41607  0.72483  0.21097  Biso   1.000  C
  C209     1.0000 0.41607  0.21097  0.48614  Biso   1.000  C
  C210     1.0000 0.41607  0.48612  0.27516  Biso   1.000  C
  C211     1.0000 0.58393  0.78903  0.27517  Biso   1.000  C
  C212     1.0000 0.58393  0.72484  0.51388  Biso   1.000  C
  C213     1.0000 0.58393  0.48614  0.21097  Biso   1.000  C
  C214     1.0000 0.58393  0.51386  0.78903  Biso   1.000  C
  C215     1.0000 0.58393  0.21097  0.72483  Biso   1.000  C
  C216     1.0000 0.58393  0.27516  0.48612  Biso   1.000  C
  C217     1.0000 0.54202  0.75721  0.24279  Biso   1.000  C
  C218     1.0000 0.54202  0.24278  0.48555  Biso   1.000  C
  C219     1.0000 0.54202  0.48555  0.24278  Biso   1.000  C
  C220     1.0000 0.54202  0.24279  0.75721  Biso   1.000  C
  C221     1.0000 0.54202  0.75722  0.51445  Biso   1.000  C
  C222     1.0000 0.54202  0.51445  0.75722  Biso   1.000  C
  C223     1.0000 0.45798  0.24279  0.75721  Biso   1.000  C
  C224     1.0000 0.45798  0.24278  0.48555  Biso   1.000  C
  C225     1.0000 0.45798  0.51445  0.75722  Biso   1.000  C
  C226     1.0000 0.45798  0.48555  0.24278  Biso   1.000  C
  C227     1.0000 0.45798  0.75721  0.24279  Biso   1.000  C
  C228     1.0000 0.45798  0.75722  0.51445  Biso   1.000  C
  C229     1.0000 0.70633  0.75643  0.24357  Biso   1.000  C
  C230     1.0000 0.70633  0.24357  0.48714  Biso   1.000  C
  C231     1.0000 0.70633  0.48714  0.24357  Biso   1.000  C
  C232     1.0000 0.70633  0.24357  0.75643  Biso   1.000  C
  C233     1.0000 0.70633  0.75643  0.51286  Biso   1.000  C
  C234     1.0000 0.70633  0.51286  0.75643  Biso   1.000  C
  C235     1.0000 0.29367  0.24357  0.75643  Biso   1.000  C
  C236     1.0000 0.29367  0.24357  0.48714  Biso   1.000  C
  C237     1.0000 0.29367  0.51286  0.75643  Biso   1.000  C
  C238     1.0000 0.29367  0.48714  0.24357  Biso   1.000  C
  C239     1.0000 0.29367  0.75643  0.24357  Biso   1.000  C
  C240     1.0000 0.29367  0.75643  0.51286  Biso   1.000  C
  C241     1.0000 0.54004  0.69212  0.18099  Biso   1.000  C
  C242     1.0000 0.54004  0.18100  0.48888  Biso   1.000  C
  C243     1.0000 0.54004  0.48882  0.30785  Biso   1.000  C
  C244     1.0000 0.54004  0.30788  0.81901  Biso   1.000  C
  C245     1.0000 0.54004  0.81900  0.51112  Biso   1.000  C
  C246     1.0000 0.54004  0.51118  0.69215  Biso   1.000  C
  C247     1.0000 0.45996  0.18099  0.69212  Biso   1.000  C
  C248     1.0000 0.45996  0.30785  0.48882  Biso   1.000  C
  C249     1.0000 0.45996  0.51112  0.81900  Biso   1.000  C
  C250     1.0000 0.45996  0.48888  0.18100  Biso   1.000  C
  C251     1.0000 0.45996  0.81901  0.30788  Biso   1.000  C
  C252     1.0000 0.45996  0.69215  0.51118  Biso   1.000  C
  C253     1.0000 0.45996  0.30788  0.81901  Biso   1.000  C
  C254     1.0000 0.45996  0.81900  0.51112  Biso   1.000  C
  C255     1.0000 0.45996  0.51118  0.69215  Biso   1.000  C
  C256     1.0000 0.45996  0.69212  0.18099  Biso   1.000  C
  C257     1.0000 0.45996  0.18100  0.48888  Biso   1.000  C
  C258     1.0000 0.45996  0.48882  0.30785  Biso   1.000  C
  C259     1.0000 0.54004  0.81901  0.30788  Biso   1.000  C
  C260     1.0000 0.54004  0.69215  0.51118  Biso   1.000  C
  C261     1.0000 0.54004  0.48888  0.18100  Biso   1.000  C
  C262     1.0000 0.54004  0.51112  0.81900  Biso   1.000  C
  C263     1.0000 0.54004  0.18099  0.69212  Biso   1.000  C
  C264     1.0000 0.54004  0.30785  0.48882  Biso   1.000  C
  O1       1.0000 0.84956  0.59175  0.05319  Biso   1.000  O
  O2       1.0000 0.84956  0.05322  0.46148  Biso   1.000  O
  O3       1.0000 0.84955  0.46146  0.40826  Biso   1.000  O
  O4       1.0000 0.84956  0.40825  0.94681  Biso   1.000  O
  O5       1.0000 0.84956  0.94678  0.53852  Biso   1.000  O
  O6       1.0000 0.84955  0.53854  0.59174  Biso   1.000  O
  O7       1.0000 0.15044  0.05319  0.59175  Biso   1.000  O
  O8       1.0000 0.15045  0.40826  0.46146  Biso   1.000  O
  O9       1.0000 0.15044  0.53852  0.94678  Biso   1.000  O
  O10      1.0000 0.15044  0.46148  0.05322  Biso   1.000  O
  O11      1.0000 0.15044  0.94681  0.40825  Biso   1.000  O
  O12      1.0000 0.15045  0.59174  0.53854  Biso   1.000  O
  O13      1.0000 0.15044  0.40825  0.94681  Biso   1.000  O
  O14      1.0000 0.15044  0.94678  0.53852  Biso   1.000  O
  O15      1.0000 0.15045  0.53854  0.59174  Biso   1.000  O
  O16      1.0000 0.15044  0.59175  0.05319  Biso   1.000  O
  O17      1.0000 0.15044  0.05322  0.46148  Biso   1.000  O
  O18      1.0000 0.15045  0.46146  0.40826  Biso   1.000  O
  O19      1.0000 0.84956  0.94681  0.40825  Biso   1.000  O
  O20      1.0000 0.84955  0.59174  0.53854  Biso   1.000  O
  O21      1.0000 0.84956  0.46148  0.05322  Biso   1.000  O
  O22      1.0000 0.84956  0.53852  0.94678  Biso   1.000  O
  O23      1.0000 0.84956  0.05319  0.59175  Biso   1.000  O
  O24      1.0000 0.84955  0.40826  0.46146  Biso   1.000  O
  O25      1.0000 0.91588  0.58794  0.10267  Biso   1.000  O
  O26      1.0000 0.91587  0.10269  0.51477  Biso   1.000  O
  O27      1.0000 0.91588  0.51475  0.41206  Biso   1.000  O
  O28      1.0000 0.91588  0.41206  0.89733  Biso   1.000  O
  O29      1.0000 0.91587  0.89731  0.48523  Biso   1.000  O
  O30      1.0000 0.91588  0.48525  0.58794  Biso   1.000  O
  O31      1.0000 0.08412  0.10267  0.58794  Biso   1.000  O
  O32      1.0000 0.08412  0.41206  0.51475  Biso   1.000  O
  O33      1.0000 0.08413  0.48523  0.89731  Biso   1.000  O
  O34      1.0000 0.08413  0.51477  0.10269  Biso   1.000  O
  O35      1.0000 0.08412  0.89733  0.41206  Biso   1.000  O
  O36      1.0000 0.08412  0.58794  0.48525  Biso   1.000  O
  O37      1.0000 0.08412  0.41206  0.89733  Biso   1.000  O
  O38      1.0000 0.08413  0.89731  0.48523  Biso   1.000  O
  O39      1.0000 0.08412  0.48525  0.58794  Biso   1.000  O
  O40      1.0000 0.08412  0.58794  0.10267  Biso   1.000  O
  O41      1.0000 0.08413  0.10269  0.51477  Biso   1.000  O
  O42      1.0000 0.08412  0.51475  0.41206  Biso   1.000  O
  O43      1.0000 0.91588  0.89733  0.41206  Biso   1.000  O
  O44      1.0000 0.91588  0.58794  0.48525  Biso   1.000  O
  O45      1.0000 0.91587  0.51477  0.10269  Biso   1.000  O
  O46      1.0000 0.91587  0.48523  0.89731  Biso   1.000  O
  O47      1.0000 0.91588  0.10267  0.58794  Biso   1.000  O
  O48      1.0000 0.91588  0.41206  0.51475  Biso   1.000  O
  O49      1.0000 0.00000  0.52859  0.96352  Biso   1.000  O
  O50      1.0000 0.00000  0.96354  0.43492  Biso   1.000  O
  O51      1.0000 0.00000  0.43491  0.47138  Biso   1.000  O
  O52      1.0000 0.00000  0.47141  0.03648  Biso   1.000  O
  O53      1.0000 0.00000  0.03646  0.56508  Biso   1.000  O
  O54      1.0000 0.00000  0.56509  0.52862  Biso   1.000  O
  O55      1.0000 1.00000  0.96352  0.52859  Biso   1.000  O
  O56      1.0000 1.00000  0.47138  0.43491  Biso   1.000  O
  O57      1.0000 1.00000  0.56508  0.03646  Biso   1.000  O
  O58      1.0000 1.00000  0.43492  0.96354  Biso   1.000  O
  O59      1.0000 1.00000  0.03648  0.47141  Biso   1.000  O
  O60      1.0000 1.00000  0.52862  0.56509  Biso   1.000  O
  O61      1.0000 0.89414  0.51820  0.03638  Biso   1.000  O
  O62      1.0000 0.89414  0.03638  0.51820  Biso   1.000  O
  O63      1.0000 0.89416  0.51819  0.48181  Biso   1.000  O
  O64      1.0000 0.89414  0.48180  0.96362  Biso   1.000  O
  O65      1.0000 0.89414  0.96362  0.48180  Biso   1.000  O
  O66      1.0000 0.89416  0.48181  0.51819  Biso   1.000  O
  O67      1.0000 0.10586  0.03638  0.51820  Biso   1.000  O
  O68      1.0000 0.10584  0.48181  0.51819  Biso   1.000  O
  O69      1.0000 0.10586  0.48180  0.96362  Biso   1.000  O
  O70      1.0000 0.10586  0.51820  0.03638  Biso   1.000  O
  O71      1.0000 0.10586  0.96362  0.48180  Biso   1.000  O
  O72      1.0000 0.10584  0.51819  0.48181  Biso   1.000  O
