data_image0
_cell_length_a       27.6841
_cell_length_b       27.6903
_cell_length_c       27.6881
_cell_angle_alpha    109.54
_cell_angle_beta     109.53
_cell_angle_gamma    109.533

_symmetry_space_group_name_H-M    "P 1"
_symmetry_int_tables_number       1

loop_
  _symmetry_equiv_pos_as_xyz
  'x, y, z'

loop_
  _atom_site_label
  _atom_site_occupancy
  _atom_site_fract_x
  _atom_site_fract_y
  _atom_site_fract_z
  _atom_site_thermal_displace_type
  _atom_site_B_iso_or_equiv
  _atom_site_type_symbol
  Zn1      1.0000 0.45742  0.00053  0.45793  Biso   1.000  Zn
  Zn2      1.0000 0.45774  0.45726  0.00038  Biso   1.000  Zn
  Zn3      1.0000 0.00038  0.45783  0.45721  Biso   1.000  Zn
  Zn4      1.0000 0.99983  0.54286  0.54226  Biso   1.000  Zn
  Zn5      1.0000 0.54267  0.54215  0.99965  Biso   1.000  Zn
  Zn6      1.0000 0.54241  0.99986  0.54280  Biso   1.000  Zn
  C1       1.0000 0.51509  0.91940  0.43830  Biso   1.000  C
  C2       1.0000 0.56188  0.08116  0.48535  Biso   1.000  C
  C3       1.0000 0.16864  0.48976  0.64451  Biso   1.000  C
  C4       1.0000 0.51242  0.15334  0.68308  Biso   1.000  C
  C5       1.0000 0.64460  0.16886  0.48980  Biso   1.000  C
  C6       1.0000 0.51060  0.83185  0.35535  Biso   1.000  C
  C7       1.0000 0.31731  0.84713  0.48805  Biso   1.000  C
  C8       1.0000 0.68304  0.51229  0.15312  Biso   1.000  C
  C9       1.0000 0.48786  0.31712  0.84695  Biso   1.000  C
  C10      1.0000 0.35536  0.51038  0.83153  Biso   1.000  C
  C11      1.0000 0.48954  0.64465  0.16840  Biso   1.000  C
  C12      1.0000 0.83146  0.35557  0.51025  Biso   1.000  C
  C13      1.0000 0.91925  0.43841  0.51490  Biso   1.000  C
  C14      1.0000 0.84683  0.48796  0.31725  Biso   1.000  C
  C15      1.0000 0.15339  0.68302  0.51228  Biso   1.000  C
  C16      1.0000 0.40141  0.92349  0.48289  Biso   1.000  C
  C17      1.0000 0.60544  0.12835  0.48631  Biso   1.000  C
  C18      1.0000 0.64585  0.51634  0.11834  Biso   1.000  C
  C19      1.0000 0.35450  0.88186  0.48395  Biso   1.000  C
  C20      1.0000 0.39459  0.51394  0.87203  Biso   1.000  C
  C21      1.0000 0.48369  0.35424  0.88168  Biso   1.000  C
  C22      1.0000 0.87198  0.39480  0.51383  Biso   1.000  C
  C23      1.0000 0.48604  0.60539  0.12799  Biso   1.000  C
  C24      1.0000 0.11853  0.64581  0.51625  Biso   1.000  C
  C25      1.0000 0.88161  0.48388  0.35442  Biso   1.000  C
  C26      1.0000 0.51655  0.11857  0.64596  Biso   1.000  C
  C27      1.0000 0.12819  0.48626  0.60529  Biso   1.000  C
  C28      1.0000 0.51416  0.87229  0.39464  Biso   1.000  C
  C29      1.0000 0.48262  0.40115  0.92330  Biso   1.000  C
  C30      1.0000 0.51756  0.07688  0.59902  Biso   1.000  C
  C31      1.0000 0.48515  0.56177  0.08091  Biso   1.000  C
  C32      1.0000 0.43820  0.51487  0.91918  Biso   1.000  C
  C33      1.0000 0.92331  0.48284  0.40129  Biso   1.000  C
  C34      1.0000 0.59888  0.51731  0.07665  Biso   1.000  C
  C35      1.0000 0.08103  0.48530  0.56168  Biso   1.000  C
  C36      1.0000 0.07678  0.59889  0.51723  Biso   1.000  C
  C37      1.0000 0.78912  0.25945  0.50494  Biso   1.000  C
  C38      1.0000 0.75629  0.44312  0.22264  Biso   1.000  C
  C39      1.0000 0.18234  0.71580  0.44929  Biso   1.000  C
  C40      1.0000 0.26499  0.49495  0.68659  Biso   1.000  C
  C41      1.0000 0.24598  0.77574  0.55729  Biso   1.000  C
  C42      1.0000 0.81607  0.55109  0.28647  Biso   1.000  C
  C43      1.0000 0.73307  0.31163  0.50048  Biso   1.000  C
  C44      1.0000 0.21287  0.49971  0.74271  Biso   1.000  C
  C45      1.0000 0.44928  0.18235  0.71554  Biso   1.000  C
  C46      1.0000 0.68645  0.26503  0.49463  Biso   1.000  C
  C47      1.0000 0.50483  0.78927  0.25899  Biso   1.000  C
  C48      1.0000 0.22266  0.75663  0.44320  Biso   1.000  C
  C49      1.0000 0.50088  0.73351  0.31145  Biso   1.000  C
  C50      1.0000 0.74289  0.21327  0.49999  Biso   1.000  C
  C51      1.0000 0.55730  0.24576  0.77591  Biso   1.000  C
  C52      1.0000 0.28673  0.81612  0.55116  Biso   1.000  C
  C53      1.0000 0.77581  0.55723  0.24564  Biso   1.000  C
  C54      1.0000 0.55110  0.28648  0.81622  Biso   1.000  C
  C55      1.0000 0.31160  0.50087  0.73326  Biso   1.000  C
  C56      1.0000 0.49966  0.74293  0.21272  Biso   1.000  C
  C57      1.0000 0.25906  0.50472  0.78898  Biso   1.000  C
  C58      1.0000 0.44310  0.22265  0.75631  Biso   1.000  C
  C59      1.0000 0.71557  0.44924  0.18222  Biso   1.000  C
  C60      1.0000 0.49481  0.68678  0.26477  Biso   1.000  C
  C61      1.0000 0.78487  0.30931  0.50545  Biso   1.000  C
  C62      1.0000 0.80673  0.49392  0.27553  Biso   1.000  C
  C63      1.0000 0.19358  0.72480  0.50643  Biso   1.000  C
  C64      1.0000 0.21516  0.49457  0.69083  Biso   1.000  C
  C65      1.0000 0.50647  0.19349  0.72479  Biso   1.000  C
  C66      1.0000 0.69088  0.21540  0.49459  Biso   1.000  C
  C67      1.0000 0.50569  0.78522  0.30903  Biso   1.000  C
  C68      1.0000 0.27562  0.80698  0.49401  Biso   1.000  C
  C69      1.0000 0.72477  0.50639  0.19332  Biso   1.000  C
  C70      1.0000 0.49389  0.27548  0.80684  Biso   1.000  C
  C71      1.0000 0.30910  0.50554  0.78491  Biso   1.000  C
  C72      1.0000 0.49443  0.69101  0.21495  Biso   1.000  C
  Cl1      1.0000 0.74796  0.15304  0.49979  Biso   1.000  Cl
  Cl2      1.0000 0.72824  0.37207  0.50103  Biso   1.000  Cl
  Cl3      1.0000 0.49901  0.74776  0.15226  Biso   1.000  Cl
  Cl4      1.0000 0.11857  0.65425  0.38795  Biso   1.000  Cl
  Cl5      1.0000 0.48842  0.62384  0.26716  Biso   1.000  Cl
  Cl6      1.0000 0.85194  0.25690  0.51096  Biso   1.000  Cl
  Cl7      1.0000 0.61241  0.35028  0.87776  Biso   1.000  Cl
  Cl8      1.0000 0.25904  0.78641  0.62625  Biso   1.000  Cl
  Cl9      1.0000 0.87749  0.61242  0.35034  Biso   1.000  Cl
  Cl10     1.0000 0.62632  0.25868  0.78690  Biso   1.000  Cl
  Cl11     1.0000 0.26750  0.48880  0.62375  Biso   1.000  Cl
  Cl12     1.0000 0.65392  0.38791  0.11854  Biso   1.000  Cl
  Cl13     1.0000 0.51073  0.85200  0.25634  Biso   1.000  Cl
  Cl14     1.0000 0.15246  0.49919  0.74758  Biso   1.000  Cl
  Cl15     1.0000 0.38797  0.11874  0.65379  Biso   1.000  Cl
  Cl16     1.0000 0.74552  0.37414  0.20960  Biso   1.000  Cl
  Cl17     1.0000 0.50193  0.72892  0.37213  Biso   1.000  Cl
  Cl18     1.0000 0.20943  0.74610  0.37425  Biso   1.000  Cl
  Cl19     1.0000 0.37230  0.50193  0.72869  Biso   1.000  Cl
  Cl20     1.0000 0.35070  0.87742  0.61250  Biso   1.000  Cl
  Cl21     1.0000 0.78676  0.62621  0.25849  Biso   1.000  Cl
  Cl22     1.0000 0.62339  0.26728  0.48805  Biso   1.000  Cl
  Cl23     1.0000 0.25635  0.51052  0.85167  Biso   1.000  Cl
  Cl24     1.0000 0.37409  0.20953  0.74550  Biso   1.000  Cl
  O1       1.0000 0.48105  0.93824  0.41951  Biso   1.000  O
  O2       1.0000 0.94222  0.44665  0.38583  Biso   1.000  O
  O3       1.0000 0.41937  0.48081  0.93797  Biso   1.000  O
  O4       1.0000 0.93848  0.51758  0.45398  Biso   1.000  O
  O5       1.0000 0.61423  0.55335  0.05756  Biso   1.000  O
  O6       1.0000 0.06218  0.51933  0.58051  Biso   1.000  O
  O7       1.0000 0.54625  0.48265  0.06166  Biso   1.000  O
  O8       1.0000 0.06179  0.44974  0.50673  Biso   1.000  O
  O9       1.0000 0.06162  0.54623  0.48246  Biso   1.000  O
  O10      1.0000 0.50691  0.06191  0.44981  Biso   1.000  O
  O11      1.0000 0.05786  0.61433  0.55341  Biso   1.000  O
  O12      1.0000 0.51725  0.45380  0.93829  Biso   1.000  O
  O13      1.0000 0.58072  0.06231  0.51935  Biso   1.000  O
  O14      1.0000 0.93814  0.41957  0.48093  Biso   1.000  O
  O15      1.0000 0.45408  0.93855  0.51754  Biso   1.000  O
  O16      1.0000 0.93848  0.49335  0.55047  Biso   1.000  O
  O17      1.0000 0.38600  0.94249  0.44677  Biso   1.000  O
  O18      1.0000 0.55062  0.93857  0.49323  Biso   1.000  O
  O19      1.0000 0.44656  0.38579  0.94238  Biso   1.000  O
  O20      1.0000 0.48282  0.06182  0.54639  Biso   1.000  O
  O21      1.0000 0.44960  0.50682  0.06171  Biso   1.000  O
  O22      1.0000 0.55368  0.05787  0.61437  Biso   1.000  O
  O23      1.0000 0.51921  0.58055  0.06208  Biso   1.000  O
  O24      1.0000 0.49315  0.55043  0.93841  Biso   1.000  O
