data_image0
_cell_length_a       6.95835
_cell_length_b       13.5119
_cell_length_c       22.3301
_cell_angle_alpha    90
_cell_angle_beta     90
_cell_angle_gamma    90.0006

_symmetry_space_group_name_H-M    "P 1"
_symmetry_int_tables_number       1

loop_
  _symmetry_equiv_pos_as_xyz
  'x, y, z'

loop_
  _atom_site_label
  _atom_site_occupancy
  _atom_site_fract_x
  _atom_site_fract_y
  _atom_site_fract_z
  _atom_site_thermal_displace_type
  _atom_site_B_iso_or_equiv
  _atom_site_type_symbol
  Si1      1.0000 0.55589  0.86318  0.91310  Biso   1.000  Si
  Si2      1.0000 0.55589  0.86318  0.58690  Biso   1.000  Si
  Si3      1.0000 0.55589  0.63681  0.91310  Biso   1.000  Si
  Si4      1.0000 0.55589  0.63681  0.58690  Biso   1.000  Si
  Si5      1.0000 0.44411  0.13682  0.08690  Biso   1.000  Si
  Si6      1.0000 0.44411  0.13682  0.41310  Biso   1.000  Si
  Si7      1.0000 0.44411  0.36319  0.08690  Biso   1.000  Si
  Si8      1.0000 0.44411  0.36319  0.41310  Biso   1.000  Si
  Si9      1.0000 0.88890  0.86406  0.81886  Biso   1.000  Si
  Si10     1.0000 0.88890  0.86406  0.68115  Biso   1.000  Si
  Si11     1.0000 0.88890  0.63593  0.81885  Biso   1.000  Si
  Si12     1.0000 0.88890  0.63593  0.68115  Biso   1.000  Si
  Si13     1.0000 0.11110  0.13594  0.18114  Biso   1.000  Si
  Si14     1.0000 0.11110  0.13594  0.31885  Biso   1.000  Si
  Si15     1.0000 0.11110  0.36407  0.18115  Biso   1.000  Si
  Si16     1.0000 0.11110  0.36407  0.31885  Biso   1.000  Si
  Si17     1.0000 0.88001  0.86245  0.00784  Biso   1.000  Si
  Si18     1.0000 0.88001  0.86245  0.49216  Biso   1.000  Si
  Si19     1.0000 0.88001  0.63755  0.00783  Biso   1.000  Si
  Si20     1.0000 0.88001  0.63755  0.49217  Biso   1.000  Si
  Si21     1.0000 0.11999  0.13755  0.99216  Biso   1.000  Si
  Si22     1.0000 0.11999  0.13755  0.50784  Biso   1.000  Si
  Si23     1.0000 0.11999  0.36245  0.99217  Biso   1.000  Si
  Si24     1.0000 0.11999  0.36245  0.50783  Biso   1.000  Si
  Si25     1.0000 0.14748  0.95172  0.91468  Biso   1.000  Si
  Si26     1.0000 0.14748  0.95172  0.58532  Biso   1.000  Si
  Si27     1.0000 0.14747  0.54828  0.91468  Biso   1.000  Si
  Si28     1.0000 0.14747  0.54828  0.58532  Biso   1.000  Si
  Si29     1.0000 0.85252  0.04828  0.08532  Biso   1.000  Si
  Si30     1.0000 0.85252  0.04828  0.41468  Biso   1.000  Si
  Si31     1.0000 0.85253  0.45172  0.08532  Biso   1.000  Si
  Si32     1.0000 0.85253  0.45172  0.41468  Biso   1.000  Si
  O1       1.0000 0.68168  0.87443  0.85206  Biso   1.000  O
  O2       1.0000 0.68168  0.87443  0.64794  Biso   1.000  O
  O3       1.0000 0.68168  0.62556  0.85206  Biso   1.000  O
  O4       1.0000 0.68168  0.62556  0.64794  Biso   1.000  O
  O5       1.0000 0.31832  0.12557  0.14794  Biso   1.000  O
  O6       1.0000 0.31832  0.12557  0.35206  Biso   1.000  O
  O7       1.0000 0.31832  0.37444  0.14794  Biso   1.000  O
  O8       1.0000 0.31832  0.37444  0.35206  Biso   1.000  O
  O9       1.0000 0.68424  0.89212  0.97170  Biso   1.000  O
  O10      1.0000 0.68424  0.89212  0.52830  Biso   1.000  O
  O11      1.0000 0.68424  0.60788  0.97170  Biso   1.000  O
  O12      1.0000 0.68424  0.60788  0.52830  Biso   1.000  O
  O13      1.0000 0.31576  0.10788  0.02830  Biso   1.000  O
  O14      1.0000 0.31576  0.10788  0.47170  Biso   1.000  O
  O15      1.0000 0.31576  0.39212  0.02830  Biso   1.000  O
  O16      1.0000 0.31576  0.39212  0.47170  Biso   1.000  O
  O17      1.0000 0.37877  0.94051  0.90934  Biso   1.000  O
  O18      1.0000 0.37877  0.94051  0.59066  Biso   1.000  O
  O19      1.0000 0.37877  0.55948  0.90934  Biso   1.000  O
  O20      1.0000 0.37877  0.55948  0.59066  Biso   1.000  O
  O21      1.0000 0.62123  0.05949  0.09066  Biso   1.000  O
  O22      1.0000 0.62123  0.05949  0.40934  Biso   1.000  O
  O23      1.0000 0.62123  0.44052  0.09066  Biso   1.000  O
  O24      1.0000 0.62123  0.44052  0.40934  Biso   1.000  O
  O25      1.0000 0.47495  0.75000  0.91922  Biso   1.000  O
  O26      1.0000 0.47495  0.75000  0.58078  Biso   1.000  O
  O27      1.0000 0.52505  0.25000  0.08078  Biso   1.000  O
  O28      1.0000 0.52505  0.25000  0.41922  Biso   1.000  O
  O29      1.0000 0.05009  0.93499  0.84926  Biso   1.000  O
  O30      1.0000 0.05008  0.93499  0.65074  Biso   1.000  O
  O31      1.0000 0.05008  0.56499  0.84926  Biso   1.000  O
  O32      1.0000 0.05008  0.56499  0.65074  Biso   1.000  O
  O33      1.0000 0.94991  0.06501  0.15074  Biso   1.000  O
  O34      1.0000 0.94992  0.06501  0.34926  Biso   1.000  O
  O35      1.0000 0.94992  0.43501  0.15074  Biso   1.000  O
  O36      1.0000 0.94992  0.43501  0.34926  Biso   1.000  O
  O37      1.0000 0.96639  0.74999  0.82290  Biso   1.000  O
  O38      1.0000 0.96639  0.74999  0.67710  Biso   1.000  O
  O39      1.0000 0.03361  0.25001  0.17710  Biso   1.000  O
  O40      1.0000 0.03361  0.25001  0.32290  Biso   1.000  O
  O41      1.0000 0.85896  0.89864  0.75000  Biso   1.000  O
  O42      1.0000 0.85895  0.60134  0.75000  Biso   1.000  O
  O43      1.0000 0.14104  0.10136  0.25000  Biso   1.000  O
  O44      1.0000 0.14105  0.39866  0.25000  Biso   1.000  O
  O45      1.0000 0.86826  0.75000  0.03333  Biso   1.000  O
  O46      1.0000 0.86826  0.75000  0.46667  Biso   1.000  O
  O47      1.0000 0.13174  0.25000  0.96667  Biso   1.000  O
  O48      1.0000 0.13174  0.25000  0.53333  Biso   1.000  O
  O49      1.0000 0.06537  0.87100  0.96300  Biso   1.000  O
  O50      1.0000 0.06536  0.87100  0.53700  Biso   1.000  O
  O51      1.0000 0.06536  0.62901  0.96300  Biso   1.000  O
  O52      1.0000 0.06536  0.62901  0.53701  Biso   1.000  O
  O53      1.0000 0.93463  0.12900  0.03700  Biso   1.000  O
  O54      1.0000 0.93464  0.12900  0.46300  Biso   1.000  O
  O55      1.0000 0.93464  0.37099  0.03700  Biso   1.000  O
  O56      1.0000 0.93464  0.37099  0.46299  Biso   1.000  O
  O57      1.0000 0.90583  0.93591  0.06476  Biso   1.000  O
  O58      1.0000 0.90583  0.93591  0.43524  Biso   1.000  O
  O59      1.0000 0.90586  0.56409  0.06476  Biso   1.000  O
  O60      1.0000 0.90586  0.56409  0.43524  Biso   1.000  O
  O61      1.0000 0.09417  0.06409  0.93524  Biso   1.000  O
  O62      1.0000 0.09417  0.06409  0.56476  Biso   1.000  O
  O63      1.0000 0.09414  0.43591  0.93524  Biso   1.000  O
  O64      1.0000 0.09414  0.43591  0.56476  Biso   1.000  O
