data_image0
_cell_length_a       31.7858
_cell_length_b       31.7623
_cell_length_c       31.9391
_cell_angle_alpha    89.9963
_cell_angle_beta     90.0203
_cell_angle_gamma    89.9467

_symmetry_space_group_name_H-M    "P 1"
_symmetry_int_tables_number       1

loop_
  _symmetry_equiv_pos_as_xyz
  'x, y, z'

loop_
  _atom_site_label
  _atom_site_occupancy
  _atom_site_fract_x
  _atom_site_fract_y
  _atom_site_fract_z
  _atom_site_thermal_displace_type
  _atom_site_B_iso_or_equiv
  _atom_site_type_symbol
  Cu1      1.0000 0.78226  0.78240  0.85225  Biso   1.000  Cu
  Cu2      1.0000 0.85277  0.78186  0.78125  Biso   1.000  Cu
  Cu3      1.0000 0.78170  0.85333  0.78125  Biso   1.000  Cu
  Cu4      1.0000 0.78201  0.21773  0.14772  Biso   1.000  Cu
  Cu5      1.0000 0.85271  0.21825  0.21873  Biso   1.000  Cu
  Cu6      1.0000 0.78164  0.14700  0.21877  Biso   1.000  Cu
  Cu7      1.0000 0.21745  0.78237  0.14748  Biso   1.000  Cu
  Cu8      1.0000 0.14679  0.78188  0.21855  Biso   1.000  Cu
  Cu9      1.0000 0.21822  0.85280  0.21875  Biso   1.000  Cu
  Cu10     1.0000 0.21887  0.21887  0.85115  Biso   1.000  Cu
  Cu11     1.0000 0.14701  0.21807  0.78132  Biso   1.000  Cu
  Cu12     1.0000 0.21828  0.14695  0.78130  Biso   1.000  Cu
  H1       1.0000 0.81242  0.70429  0.90766  Biso   1.000  H
  H2       1.0000 0.90827  0.70344  0.81121  Biso   1.000  H
  H3       1.0000 0.70339  0.90875  0.81149  Biso   1.000  H
  H4       1.0000 0.70459  0.81267  0.90782  Biso   1.000  H
  H5       1.0000 0.90801  0.81173  0.70338  Biso   1.000  H
  H6       1.0000 0.81171  0.90839  0.70313  Biso   1.000  H
  H7       1.0000 0.81198  0.29584  0.09235  Biso   1.000  H
  H8       1.0000 0.90815  0.29645  0.18855  Biso   1.000  H
  H9       1.0000 0.70348  0.09143  0.18865  Biso   1.000  H
  H10      1.0000 0.70414  0.18749  0.09230  Biso   1.000  H
  H11      1.0000 0.90797  0.18836  0.29672  Biso   1.000  H
  H12      1.0000 0.81164  0.09191  0.29690  Biso   1.000  H
  H13      1.0000 0.18704  0.70466  0.09182  Biso   1.000  H
  H14      1.0000 0.09117  0.70384  0.18825  Biso   1.000  H
  H15      1.0000 0.29664  0.90809  0.18885  Biso   1.000  H
  H16      1.0000 0.29549  0.81241  0.09214  Biso   1.000  H
  H17      1.0000 0.09181  0.81179  0.29671  Biso   1.000  H
  H18      1.0000 0.18856  0.90782  0.29698  Biso   1.000  H
  H19      1.0000 0.18917  0.29745  0.90609  Biso   1.000  H
  H20      1.0000 0.09083  0.29560  0.81210  Biso   1.000  H
  H21      1.0000 0.29579  0.09087  0.81220  Biso   1.000  H
  H22      1.0000 0.29730  0.18918  0.90626  Biso   1.000  H
  H23      1.0000 0.09161  0.18787  0.70356  Biso   1.000  H
  H24      1.0000 0.18829  0.09158  0.70339  Biso   1.000  H
  H25      1.0000 0.98019  0.59000  0.88449  Biso   1.000  H
  H26      1.0000 0.01866  0.53507  0.92343  Biso   1.000  H
  H27      1.0000 0.92269  0.53553  0.01827  Biso   1.000  H
  H28      1.0000 0.88408  0.59050  0.97949  Biso   1.000  H
  H29      1.0000 0.88394  0.40954  0.02044  Biso   1.000  H
  H30      1.0000 0.92270  0.46437  0.98175  Biso   1.000  H
  H31      1.0000 0.01853  0.46453  0.07681  Biso   1.000  H
  H32      1.0000 0.97989  0.40976  0.11569  Biso   1.000  H
  H33      1.0000 0.11563  0.59033  0.02040  Biso   1.000  H
  H34      1.0000 0.07708  0.53524  0.98186  Biso   1.000  H
  H35      1.0000 0.98110  0.53527  0.07671  Biso   1.000  H
  H36      1.0000 0.01952  0.59033  0.11540  Biso   1.000  H
  H37      1.0000 0.11587  0.40946  0.97955  Biso   1.000  H
  H38      1.0000 0.07709  0.46426  0.01836  Biso   1.000  H
  H39      1.0000 0.98099  0.46435  0.92357  Biso   1.000  H
  H40      1.0000 0.01962  0.40957  0.88461  Biso   1.000  H
  H41      1.0000 0.58962  0.97997  0.88446  Biso   1.000  H
  H42      1.0000 0.53467  0.01841  0.92331  Biso   1.000  H
  H43      1.0000 0.53600  0.92297  0.01878  Biso   1.000  H
  H44      1.0000 0.59095  0.88436  0.98007  Biso   1.000  H
  H45      1.0000 0.40923  0.01936  0.88505  Biso   1.000  H
  H46      1.0000 0.46399  0.98072  0.92403  Biso   1.000  H
  H47      1.0000 0.46474  0.07747  0.01818  Biso   1.000  H
  H48      1.0000 0.40994  0.11624  0.97937  Biso   1.000  H
  H49      1.0000 0.58980  0.01991  0.11596  Biso   1.000  H
  H50      1.0000 0.53491  0.98137  0.07717  Biso   1.000  H
  H51      1.0000 0.53567  0.07685  0.98173  Biso   1.000  H
  H52      1.0000 0.59054  0.11556  0.02040  Biso   1.000  H
  H53      1.0000 0.41019  0.88348  0.02106  Biso   1.000  H
  H54      1.0000 0.46499  0.92223  0.98236  Biso   1.000  H
  H55      1.0000 0.46406  0.01894  0.07655  Biso   1.000  H
  H56      1.0000 0.40931  0.98031  0.11543  Biso   1.000  H
  H57      1.0000 0.88385  0.97967  0.58958  Biso   1.000  H
  H58      1.0000 0.92263  0.01829  0.53487  Biso   1.000  H
  H59      1.0000 0.01886  0.92305  0.53572  Biso   1.000  H
  H60      1.0000 0.98021  0.88425  0.59040  Biso   1.000  H
  H61      1.0000 0.02060  0.88359  0.41056  Biso   1.000  H
  H62      1.0000 0.98184  0.92243  0.46517  Biso   1.000  H
  H63      1.0000 0.07671  0.01885  0.46432  Biso   1.000  H
  H64      1.0000 0.11563  0.98014  0.40972  Biso   1.000  H
  H65      1.0000 0.11607  0.02007  0.58974  Biso   1.000  H
  H66      1.0000 0.07733  0.98151  0.53494  Biso   1.000  H
  H67      1.0000 0.98114  0.07679  0.53569  Biso   1.000  H
  H68      1.0000 0.01976  0.11554  0.59045  Biso   1.000  H
  H69      1.0000 0.97946  0.11625  0.41054  Biso   1.000  H
  H70      1.0000 0.01816  0.07742  0.46524  Biso   1.000  H
  H71      1.0000 0.92326  0.98102  0.46427  Biso   1.000  H
  H72      1.0000 0.88441  0.01971  0.40958  Biso   1.000  H
  C1       1.0000 0.83232  0.70993  0.88074  Biso   1.000  C
  C2       1.0000 0.86921  0.68864  0.86829  Biso   1.000  C
  C3       1.0000 0.88150  0.70948  0.83128  Biso   1.000  C
  C4       1.0000 0.70950  0.88192  0.83151  Biso   1.000  C
  C5       1.0000 0.68877  0.86954  0.86855  Biso   1.000  C
  C6       1.0000 0.71011  0.83263  0.88091  Biso   1.000  C
  C7       1.0000 0.88112  0.83185  0.70912  Biso   1.000  C
  C8       1.0000 0.86870  0.86885  0.68804  Biso   1.000  C
  C9       1.0000 0.83172  0.88143  0.70900  Biso   1.000  C
  C10      1.0000 0.83198  0.29016  0.11922  Biso   1.000  C
  C11      1.0000 0.86889  0.31139  0.13161  Biso   1.000  C
  C12      1.0000 0.88131  0.29048  0.16856  Biso   1.000  C
  C13      1.0000 0.70945  0.11827  0.16863  Biso   1.000  C
  C14      1.0000 0.68858  0.13063  0.13163  Biso   1.000  C
  C15      1.0000 0.70979  0.16755  0.11921  Biso   1.000  C
  C16      1.0000 0.88107  0.16830  0.29096  Biso   1.000  C
  C17      1.0000 0.86865  0.13132  0.31202  Biso   1.000  C
  C18      1.0000 0.83166  0.11882  0.29104  Biso   1.000  C
  C19      1.0000 0.16714  0.71028  0.11875  Biso   1.000  C
  C20      1.0000 0.13025  0.68904  0.13117  Biso   1.000  C
  C21      1.0000 0.11795  0.70985  0.16821  Biso   1.000  C
  C22      1.0000 0.29053  0.88137  0.16872  Biso   1.000  C
  C23      1.0000 0.31132  0.86906  0.13168  Biso   1.000  C
  C24      1.0000 0.28994  0.83227  0.11912  Biso   1.000  C
  C25      1.0000 0.11879  0.83174  0.29096  Biso   1.000  C
  C26      1.0000 0.13141  0.86861  0.31209  Biso   1.000  C
  C27      1.0000 0.16841  0.88101  0.29110  Biso   1.000  C
  C28      1.0000 0.16868  0.29119  0.87974  Biso   1.000  C
  C29      1.0000 0.13110  0.31169  0.86802  Biso   1.000  C
  C30      1.0000 0.11823  0.29025  0.83153  Biso   1.000  C
  C31      1.0000 0.29038  0.11827  0.83163  Biso   1.000  C
  C32      1.0000 0.31171  0.13115  0.86817  Biso   1.000  C
  C33      1.0000 0.29114  0.16870  0.87988  Biso   1.000  C
  C34      1.0000 0.11858  0.16785  0.70933  Biso   1.000  C
  C35      1.0000 0.13113  0.13089  0.68827  Biso   1.000  C
  C36      1.0000 0.16817  0.11846  0.70924  Biso   1.000  C
  C37      1.0000 0.99999  0.99991  0.50002  Biso   1.000  C
  C38      1.0000 0.99986  0.49983  0.00010  Biso   1.000  C
  C39      1.0000 0.49987  0.99987  0.00027  Biso   1.000  C
  C40      1.0000 0.92908  0.59422  0.92891  Biso   1.000  C
  C41      1.0000 0.96743  0.57780  0.91364  Biso   1.000  C
  C42      1.0000 0.98895  0.54673  0.93570  Biso   1.000  C
  C43      1.0000 0.88952  0.65509  0.88872  Biso   1.000  C
  C44      1.0000 0.93527  0.54698  0.98874  Biso   1.000  C
  C45      1.0000 0.91340  0.57808  0.96704  Biso   1.000  C
  C46      1.0000 0.90753  0.62653  0.90710  Biso   1.000  C
  C47      1.0000 0.97324  0.53038  0.97344  Biso   1.000  C
  C48      1.0000 0.92885  0.40570  0.07115  Biso   1.000  C
  C49      1.0000 0.91325  0.42188  0.03298  Biso   1.000  C
  C50      1.0000 0.93520  0.45290  0.01132  Biso   1.000  C
  C51      1.0000 0.88915  0.34493  0.11120  Biso   1.000  C
  C52      1.0000 0.98881  0.45298  0.06450  Biso   1.000  C
  C53      1.0000 0.96719  0.42199  0.08651  Biso   1.000  C
  C54      1.0000 0.90722  0.37348  0.09290  Biso   1.000  C
  C55      1.0000 0.97318  0.46937  0.02671  Biso   1.000  C
  C56      1.0000 0.07060  0.59435  0.07093  Biso   1.000  C
  C57      1.0000 0.08632  0.57800  0.03290  Biso   1.000  C
  C58      1.0000 0.06448  0.54683  0.01134  Biso   1.000  C
  C59      1.0000 0.11000  0.65546  0.11079  Biso   1.000  C
  C60      1.0000 0.01080  0.54685  0.06439  Biso   1.000  C
  C61      1.0000 0.03229  0.57801  0.08630  Biso   1.000  C
  C62      1.0000 0.09207  0.62678  0.09256  Biso   1.000  C
  C63      1.0000 0.02650  0.53036  0.02669  Biso   1.000  C
  C64      1.0000 0.07085  0.40560  0.92898  Biso   1.000  C
  C65      1.0000 0.08650  0.42178  0.96711  Biso   1.000  C
  C66      1.0000 0.06453  0.45278  0.98882  Biso   1.000  C
  C67      1.0000 0.11069  0.34507  0.88860  Biso   1.000  C
  C68      1.0000 0.01078  0.45282  0.93581  Biso   1.000  C
  C69      1.0000 0.03239  0.42183  0.91375  Biso   1.000  C
  C70      1.0000 0.09254  0.37347  0.90709  Biso   1.000  C
  C71      1.0000 0.02650  0.46926  0.97352  Biso   1.000  C
  C72      1.0000 0.59427  0.92912  0.92919  Biso   1.000  C
  C73      1.0000 0.57761  0.96731  0.91372  Biso   1.000  C
  C74      1.0000 0.54652  0.98882  0.93573  Biso   1.000  C
  C75      1.0000 0.65522  0.88975  0.88903  Biso   1.000  C
  C76      1.0000 0.54724  0.93542  0.98912  Biso   1.000  C
  C77      1.0000 0.57835  0.91356  0.96746  Biso   1.000  C
  C78      1.0000 0.62661  0.90764  0.90743  Biso   1.000  C
  C79      1.0000 0.53041  0.97325  0.97363  Biso   1.000  C
  C80      1.0000 0.40565  0.07089  0.92910  Biso   1.000  C
  C81      1.0000 0.42167  0.03226  0.91405  Biso   1.000  C
  C82      1.0000 0.45265  0.01065  0.93612  Biso   1.000  C
  C83      1.0000 0.34509  0.11075  0.88878  Biso   1.000  C
  C84      1.0000 0.45308  0.06475  0.98878  Biso   1.000  C
  C85      1.0000 0.42206  0.08672  0.96706  Biso   1.000  C
  C86      1.0000 0.37350  0.09259  0.90724  Biso   1.000  C
  C87      1.0000 0.46932  0.02653  0.97366  Biso   1.000  C
  C88      1.0000 0.59413  0.07080  0.07125  Biso   1.000  C
  C89      1.0000 0.57766  0.03257  0.08672  Biso   1.000  C
  C90      1.0000 0.54661  0.01100  0.06475  Biso   1.000  C
  C91      1.0000 0.65503  0.11036  0.11125  Biso   1.000  C
  C92      1.0000 0.54702  0.06441  0.01138  Biso   1.000  C
  C93      1.0000 0.57807  0.08633  0.03301  Biso   1.000  C
  C94      1.0000 0.62644  0.09236  0.09296  Biso   1.000  C
  C95      1.0000 0.53036  0.02655  0.02687  Biso   1.000  C
  C96      1.0000 0.40578  0.92884  0.07131  Biso   1.000  C
  C97      1.0000 0.42226  0.91300  0.03340  Biso   1.000  C
  C98      1.0000 0.45328  0.93495  0.01174  Biso   1.000  C
  C99      1.0000 0.34492  0.88928  0.11133  Biso   1.000  C
  C100     1.0000 0.45275  0.98903  0.06443  Biso   1.000  C
  C101     1.0000 0.42178  0.96742  0.08644  Biso   1.000  C
  C102     1.0000 0.37351  0.90726  0.09304  Biso   1.000  C
  C103     1.0000 0.46944  0.97317  0.02688  Biso   1.000  C
  C104     1.0000 0.92895  0.92888  0.59392  Biso   1.000  C
  C105     1.0000 0.91325  0.96708  0.57749  Biso   1.000  C
  C106     1.0000 0.93522  0.98868  0.54654  Biso   1.000  C
  C107     1.0000 0.88907  0.88910  0.65457  Biso   1.000  C
  C108     1.0000 0.98903  0.93541  0.54701  Biso   1.000  C
  C109     1.0000 0.96741  0.91344  0.57795  Biso   1.000  C
  C110     1.0000 0.90726  0.90723  0.62609  Biso   1.000  C
  C111     1.0000 0.97331  0.97322  0.53038  Biso   1.000  C
  C112     1.0000 0.07120  0.92878  0.40621  Biso   1.000  C
  C113     1.0000 0.03307  0.91305  0.42262  Biso   1.000  C
  C114     1.0000 0.01139  0.93505  0.45352  Biso   1.000  C
  C115     1.0000 0.11114  0.88893  0.34560  Biso   1.000  C
  C116     1.0000 0.06446  0.98897  0.45305  Biso   1.000  C
  C117     1.0000 0.08649  0.96732  0.42215  Biso   1.000  C
  C118     1.0000 0.09294  0.90709  0.37408  Biso   1.000  C
  C119     1.0000 0.02671  0.97321  0.46966  Biso   1.000  C
  C120     1.0000 0.07099  0.07087  0.59405  Biso   1.000  C
  C121     1.0000 0.08669  0.03269  0.57761  Biso   1.000  C
  C122     1.0000 0.06474  0.01111  0.54661  Biso   1.000  C
  C123     1.0000 0.11083  0.11060  0.65478  Biso   1.000  C
  C124     1.0000 0.01095  0.06441  0.54703  Biso   1.000  C
  C125     1.0000 0.03255  0.08635  0.57801  Biso   1.000  C
  C126     1.0000 0.09265  0.09249  0.62627  Biso   1.000  C
  C127     1.0000 0.02667  0.02659  0.53041  Biso   1.000  C
  C128     1.0000 0.92887  0.07106  0.40611  Biso   1.000  C
  C129     1.0000 0.96698  0.08679  0.42259  Biso   1.000  C
  C130     1.0000 0.98863  0.06479  0.45353  Biso   1.000  C
  C131     1.0000 0.88900  0.11099  0.34548  Biso   1.000  C
  C132     1.0000 0.93554  0.01088  0.45299  Biso   1.000  C
  C133     1.0000 0.91354  0.03253  0.42205  Biso   1.000  C
  C134     1.0000 0.90718  0.09277  0.37395  Biso   1.000  C
  C135     1.0000 0.97328  0.02663  0.46965  Biso   1.000  C
  N1       1.0000 0.85406  0.74070  0.82260  Biso   1.000  N
  N2       1.0000 0.82356  0.74097  0.85329  Biso   1.000  N
  N3       1.0000 0.74107  0.82393  0.85338  Biso   1.000  N
  N4       1.0000 0.74070  0.85451  0.82273  Biso   1.000  N
  N5       1.0000 0.82301  0.85405  0.74008  Biso   1.000  N
  N6       1.0000 0.85366  0.82329  0.74015  Biso   1.000  N
  N7       1.0000 0.85392  0.25928  0.17727  Biso   1.000  N
  N8       1.0000 0.82332  0.25908  0.14665  Biso   1.000  N
  N9       1.0000 0.74081  0.17628  0.14667  Biso   1.000  N
  N10      1.0000 0.74060  0.14571  0.17733  Biso   1.000  N
  N11      1.0000 0.82297  0.14622  0.25995  Biso   1.000  N
  N12      1.0000 0.85362  0.17692  0.25991  Biso   1.000  N
  N13      1.0000 0.14540  0.74099  0.17695  Biso   1.000  N
  N14      1.0000 0.17591  0.74126  0.14626  Biso   1.000  N
  N15      1.0000 0.25890  0.82358  0.14655  Biso   1.000  N
  N16      1.0000 0.25926  0.85403  0.17732  Biso   1.000  N
  N17      1.0000 0.17693  0.85364  0.25994  Biso   1.000  N
  N18      1.0000 0.14615  0.82308  0.25986  Biso   1.000  N
  N19      1.0000 0.14599  0.25944  0.82247  Biso   1.000  N
  N20      1.0000 0.17728  0.26002  0.85238  Biso   1.000  N
  N21      1.0000 0.26004  0.17730  0.85244  Biso   1.000  N
  N22      1.0000 0.25957  0.14602  0.82251  Biso   1.000  N
  N23      1.0000 0.17677  0.14588  0.74031  Biso   1.000  N
  N24      1.0000 0.14601  0.17652  0.74037  Biso   1.000  N
