data_image0
_cell_length_a       6.19357
_cell_length_b       10.5789
_cell_length_c       14.9001
_cell_angle_alpha    90
_cell_angle_beta     90
_cell_angle_gamma    113.92

_symmetry_space_group_name_H-M    "P 1"
_symmetry_int_tables_number       1

loop_
  _symmetry_equiv_pos_as_xyz
  'x, y, z'

loop_
  _atom_site_label
  _atom_site_occupancy
  _atom_site_fract_x
  _atom_site_fract_y
  _atom_site_fract_z
  _atom_site_thermal_displace_type
  _atom_site_B_iso_or_equiv
  _atom_site_type_symbol
  Ca1      1.0000 0.95237  0.43185  0.62521  Biso   1.000  Ca
  Ca2      1.0000 0.54763  0.06815  0.12521  Biso   1.000  Ca
  Ca3      1.0000 0.04763  0.56815  0.37479  Biso   1.000  Ca
  Ca4      1.0000 0.45237  0.93185  0.87479  Biso   1.000  Ca
  Ca5      1.0000 0.52992  0.07176  0.62473  Biso   1.000  Ca
  Ca6      1.0000 0.97008  0.42824  0.12473  Biso   1.000  Ca
  Ca7      1.0000 0.47008  0.92824  0.37527  Biso   1.000  Ca
  Ca8      1.0000 0.02992  0.57176  0.87527  Biso   1.000  Ca
  C1       1.0000 0.35490  0.32045  0.62412  Biso   1.000  C
  C2       1.0000 0.14510  0.17955  0.12412  Biso   1.000  C
  C3       1.0000 0.64510  0.67955  0.37588  Biso   1.000  C
  C4       1.0000 0.85490  0.82045  0.87588  Biso   1.000  C
  C5       1.0000 0.12793  0.18363  0.62572  Biso   1.000  C
  C6       1.0000 0.37207  0.31637  0.12572  Biso   1.000  C
  C7       1.0000 0.87207  0.81637  0.37428  Biso   1.000  C
  C8       1.0000 0.62793  0.68363  0.87428  Biso   1.000  C
  C9       1.0000 0.76133  0.24800  0.32275  Biso   1.000  C
  C10      1.0000 0.73867  0.25200  0.82275  Biso   1.000  C
  C11      1.0000 0.23867  0.75200  0.67725  Biso   1.000  C
  C12      1.0000 0.26133  0.74800  0.17725  Biso   1.000  C
  C13      1.0000 0.75562  0.24897  0.42735  Biso   1.000  C
  C14      1.0000 0.74437  0.25103  0.92735  Biso   1.000  C
  C15      1.0000 0.24438  0.75103  0.57265  Biso   1.000  C
  C16      1.0000 0.25563  0.74897  0.07265  Biso   1.000  C
  O1       1.0000 0.88734  0.36089  0.46563  Biso   1.000  O
  O2       1.0000 0.61266  0.13911  0.96563  Biso   1.000  O
  O3       1.0000 0.11266  0.63911  0.53437  Biso   1.000  O
  O4       1.0000 0.38734  0.86089  0.03437  Biso   1.000  O
  O5       1.0000 0.61950  0.13772  0.46526  Biso   1.000  O
  O6       1.0000 0.88050  0.36228  0.96526  Biso   1.000  O
  O7       1.0000 0.38050  0.86228  0.53474  Biso   1.000  O
  O8       1.0000 0.11950  0.63772  0.03474  Biso   1.000  O
  O9       1.0000 0.62954  0.13599  0.28456  Biso   1.000  O
  O10      1.0000 0.87046  0.36401  0.78456  Biso   1.000  O
  O11      1.0000 0.37046  0.86401  0.71544  Biso   1.000  O
  O12      1.0000 0.12954  0.63599  0.21544  Biso   1.000  O
  O13      1.0000 0.89689  0.35928  0.28472  Biso   1.000  O
  O14      1.0000 0.60311  0.14072  0.78472  Biso   1.000  O
  O15      1.0000 0.10311  0.64072  0.71528  Biso   1.000  O
  O16      1.0000 0.39689  0.85928  0.21528  Biso   1.000  O
  O17      1.0000 0.54903  0.30488  0.62188  Biso   1.000  O
  O18      1.0000 0.95097  0.19512  0.12188  Biso   1.000  O
  O19      1.0000 0.45097  0.69512  0.37812  Biso   1.000  O
  O20      1.0000 0.04903  0.80488  0.87812  Biso   1.000  O
  O21      1.0000 0.93378  0.19906  0.62802  Biso   1.000  O
  O22      1.0000 0.56622  0.30094  0.12802  Biso   1.000  O
  O23      1.0000 0.06622  0.80094  0.37198  Biso   1.000  O
  O24      1.0000 0.43378  0.69906  0.87198  Biso   1.000  O
  O25      1.0000 0.33204  0.43302  0.62513  Biso   1.000  O
  O26      1.0000 0.16796  0.06698  0.12513  Biso   1.000  O
  O27      1.0000 0.66796  0.56698  0.37487  Biso   1.000  O
  O28      1.0000 0.83204  0.93302  0.87487  Biso   1.000  O
  O29      1.0000 0.15097  0.07109  0.62472  Biso   1.000  O
  O30      1.0000 0.34903  0.42891  0.12472  Biso   1.000  O
  O31      1.0000 0.84903  0.92891  0.37528  Biso   1.000  O
  O32      1.0000 0.65097  0.57109  0.87528  Biso   1.000  O
