data_image0
_cell_length_a       4.40479
_cell_length_b       28.9254
_cell_length_c       28.8952
_cell_angle_alpha    120.167
_cell_angle_beta     90.0023
_cell_angle_gamma    90.0003

_symmetry_space_group_name_H-M    "P 1"
_symmetry_int_tables_number       1

loop_
  _symmetry_equiv_pos_as_xyz
  'x, y, z'

loop_
  _atom_site_label
  _atom_site_occupancy
  _atom_site_fract_x
  _atom_site_fract_y
  _atom_site_fract_z
  _atom_site_thermal_displace_type
  _atom_site_B_iso_or_equiv
  _atom_site_type_symbol
  Al1      1.0000 0.99231  0.49981  0.50051  Biso   1.000  Al
  Al2      1.0000 0.99270  0.16676  0.83290  Biso   1.000  Al
  H1       1.0000 0.48582  0.38525  0.72079  Biso   1.000  H
  H2       1.0000 0.48561  0.28132  0.61267  Biso   1.000  H
  H3       1.0000 0.48547  0.83503  0.61461  Biso   1.000  H
  H4       1.0000 0.48530  0.83152  0.71866  Biso   1.000  H
  H5       1.0000 0.48563  0.27933  0.16445  Biso   1.000  H
  H6       1.0000 0.48559  0.38729  0.16900  Biso   1.000  H
  C1       1.0000 0.49228  0.46326  0.41967  Biso   1.000  C
  C2       1.0000 0.49233  0.45565  0.53694  Biso   1.000  C
  C3       1.0000 0.49217  0.58058  0.54479  Biso   1.000  C
  C4       1.0000 0.49266  0.21095  0.79654  Biso   1.000  C
  C5       1.0000 0.49266  0.08598  0.78853  Biso   1.000  C
  C6       1.0000 0.49262  0.20329  0.91375  Biso   1.000  C
  C7       1.0000 0.49214  0.24474  0.76901  Biso   1.000  C
  C8       1.0000 0.69189  0.23333  0.72642  Biso   1.000  C
  C9       1.0000 0.69526  0.26490  0.70157  Biso   1.000  C
  C10      1.0000 0.49558  0.30858  0.71775  Biso   1.000  C
  C11      1.0000 0.29600  0.31977  0.76041  Biso   1.000  C
  C12      1.0000 0.29439  0.28867  0.78575  Biso   1.000  C
  C13      1.0000 0.49535  0.34253  0.69316  Biso   1.000  C
  C14      1.0000 0.49533  0.32403  0.64031  Biso   1.000  C
  C15      1.0000 0.29590  0.34681  0.57307  Biso   1.000  C
  C16      1.0000 0.49558  0.35799  0.61572  Biso   1.000  C
  C17      1.0000 0.69520  0.40168  0.63190  Biso   1.000  C
  C18      1.0000 0.69161  0.43327  0.60706  Biso   1.000  C
  C19      1.0000 0.49174  0.42186  0.56448  Biso   1.000  C
  C20      1.0000 0.29405  0.37791  0.54775  Biso   1.000  C
  C21      1.0000 0.49230  0.02450  0.75482  Biso   1.000  C
  C22      1.0000 0.69190  0.99351  0.76640  Biso   1.000  C
  C23      1.0000 0.69500  0.93694  0.73498  Biso   1.000  C
  C24      1.0000 0.49532  0.90908  0.69128  Biso   1.000  C
  C25      1.0000 0.29576  0.94037  0.67995  Biso   1.000  C
  C26      1.0000 0.29433  0.99695  0.71090  Biso   1.000  C
  C27      1.0000 0.49507  0.85037  0.65737  Biso   1.000  C
  C28      1.0000 0.49501  0.81619  0.67590  Biso   1.000  C
  C29      1.0000 0.29551  0.72621  0.65331  Biso   1.000  C
  C30      1.0000 0.49517  0.75748  0.64198  Biso   1.000  C
  C31      1.0000 0.69472  0.72960  0.59826  Biso   1.000  C
  C32      1.0000 0.69140  0.67303  0.56684  Biso   1.000  C
  C33      1.0000 0.49183  0.64206  0.57845  Biso   1.000  C
  C34      1.0000 0.29389  0.66963  0.62237  Biso   1.000  C
  C35      1.0000 0.49215  0.23087  0.97526  Biso   1.000  C
  C36      1.0000 0.69188  0.27345  0.00660  Biso   1.000  C
  C37      1.0000 0.69516  0.29836  0.06319  Biso   1.000  C
  C38      1.0000 0.49545  0.28228  0.09071  Biso   1.000  C
  C39      1.0000 0.29593  0.23963  0.05907  Biso   1.000  C
  C40      1.0000 0.29438  0.21423  0.00247  Biso   1.000  C
  C41      1.0000 0.49519  0.30690  0.14943  Biso   1.000  C
  C42      1.0000 0.49512  0.35970  0.18400  Biso   1.000  C
  C43      1.0000 0.29564  0.42695  0.27435  Biso   1.000  C
  C44      1.0000 0.49523  0.38431  0.24271  Biso   1.000  C
  C45      1.0000 0.69488  0.36822  0.27024  Biso   1.000  C
  C46      1.0000 0.69150  0.39312  0.32683  Biso   1.000  C
  C47      1.0000 0.49174  0.43568  0.35816  Biso   1.000  C
  C48      1.0000 0.29398  0.45233  0.33095  Biso   1.000  C
  Cl1      1.0000 0.03752  0.30367  0.83478  Biso   1.000  Cl
  Cl2      1.0000 0.02779  0.36790  0.77776  Biso   1.000  Cl
  Cl3      1.0000 0.94890  0.18345  0.70604  Biso   1.000  Cl
  Cl4      1.0000 0.97323  0.25472  0.65677  Biso   1.000  Cl
  Cl5      1.0000 0.97326  0.41188  0.67670  Biso   1.000  Cl
  Cl6      1.0000 0.94853  0.48316  0.62742  Biso   1.000  Cl
  Cl7      1.0000 0.02778  0.29867  0.55574  Biso   1.000  Cl
  Cl8      1.0000 0.03702  0.36290  0.49874  Biso   1.000  Cl
  Cl9      1.0000 0.03738  0.03074  0.69576  Biso   1.000  Cl
  Cl10     1.0000 0.02735  0.90922  0.63183  Biso   1.000  Cl
  Cl11     1.0000 0.94902  0.02341  0.81630  Biso   1.000  Cl
  Cl12     1.0000 0.97268  0.90252  0.74541  Biso   1.000  Cl
  Cl13     1.0000 0.97248  0.76399  0.58781  Biso   1.000  Cl
  Cl14     1.0000 0.94829  0.64310  0.51691  Biso   1.000  Cl
  Cl15     1.0000 0.02716  0.75739  0.70143  Biso   1.000  Cl
  Cl16     1.0000 0.03681  0.63588  0.63754  Biso   1.000  Cl
  Cl17     1.0000 0.03755  0.16522  0.96826  Biso   1.000  Cl
  Cl18     1.0000 0.02774  0.22237  0.08988  Biso   1.000  Cl
  Cl19     1.0000 0.94898  0.29372  0.97709  Biso   1.000  Cl
  Cl20     1.0000 0.97306  0.34317  0.09797  Biso   1.000  Cl
  Cl21     1.0000 0.97282  0.32341  0.23547  Biso   1.000  Cl
  Cl22     1.0000 0.94856  0.37284  0.35634  Biso   1.000  Cl
  Cl23     1.0000 0.02744  0.44421  0.24355  Biso   1.000  Cl
  Cl24     1.0000 0.03709  0.50132  0.36515  Biso   1.000  Cl
  O1       1.0000 0.71974  0.55668  0.55096  Biso   1.000  O
  O2       1.0000 0.71997  0.49334  0.44375  Biso   1.000  O
  O3       1.0000 0.72009  0.44954  0.50688  Biso   1.000  O
  O4       1.0000 0.26496  0.55887  0.51364  Biso   1.000  O
  O5       1.0000 0.26528  0.48679  0.54654  Biso   1.000  O
  O6       1.0000 0.26527  0.45369  0.44122  Biso   1.000  O
  O7       1.0000 0.72031  0.17322  0.88966  Biso   1.000  O
  O8       1.0000 0.72033  0.21704  0.82662  Biso   1.000  O
  O9       1.0000 0.72021  0.10989  0.78237  Biso   1.000  O
  O10      1.0000 0.26551  0.21285  0.89221  Biso   1.000  O
  O11      1.0000 0.26558  0.10769  0.81970  Biso   1.000  O
  O12      1.0000 0.26554  0.17981  0.78691  Biso   1.000  O
