data_image0
_cell_length_a       17.0028
_cell_length_b       17.1626
_cell_length_c       16.9316
_cell_angle_alpha    59.8358
_cell_angle_beta     60.7734
_cell_angle_gamma    59.4214

_symmetry_space_group_name_H-M    "P 1"
_symmetry_int_tables_number       1

loop_
  _symmetry_equiv_pos_as_xyz
  'x, y, z'

loop_
  _atom_site_label
  _atom_site_occupancy
  _atom_site_fract_x
  _atom_site_fract_y
  _atom_site_fract_z
  _atom_site_thermal_displace_type
  _atom_site_B_iso_or_equiv
  _atom_site_type_symbol
  Zr1      1.0000 0.89781  0.39775  0.60218  Biso   1.000  Zr
  Zr2      1.0000 0.10219  0.60221  0.39781  Biso   1.000  Zr
  Zr3      1.0000 0.10479  0.39519  0.60478  Biso   1.000  Zr
  Zr4      1.0000 0.89521  0.60476  0.39522  Biso   1.000  Zr
  Zr5      1.0000 0.89630  0.60365  0.60372  Biso   1.000  Zr
  Zr6      1.0000 0.10370  0.39630  0.39628  Biso   1.000  Zr
  H1       1.0000 0.92053  0.41753  0.74505  Biso   1.000  H
  H2       1.0000 0.91675  0.74504  0.41764  Biso   1.000  H
  H3       1.0000 0.24506  0.41680  0.42049  Biso   1.000  H
  H4       1.0000 0.91766  0.42052  0.41672  Biso   1.000  H
  H5       1.0000 0.64320  0.65270  0.83773  Biso   1.000  H
  H6       1.0000 0.33770  0.36637  0.14320  Biso   1.000  H
  H7       1.0000 0.15272  0.14317  0.36638  Biso   1.000  H
  H8       1.0000 0.86636  0.83770  0.65277  Biso   1.000  H
  H9       1.0000 0.64353  0.83694  0.36481  Biso   1.000  H
  H10      1.0000 0.33693  0.14350  0.65474  Biso   1.000  H
  H11      1.0000 0.86485  0.65472  0.14352  Biso   1.000  H
  H12      1.0000 0.15474  0.36479  0.83697  Biso   1.000  H
  H13      1.0000 0.15107  0.14452  0.83558  Biso   1.000  H
  H14      1.0000 0.86882  0.83555  0.14455  Biso   1.000  H
  H15      1.0000 0.64459  0.65102  0.36887  Biso   1.000  H
  H16      1.0000 0.33552  0.36884  0.65106  Biso   1.000  H
  H17      1.0000 0.53452  0.33319  0.93941  Biso   1.000  H
  H18      1.0000 0.68017  0.39307  0.80375  Biso   1.000  H
  H19      1.0000 0.43937  0.69290  0.03451  Biso   1.000  H
  H20      1.0000 0.30371  0.62299  0.18020  Biso   1.000  H
  H21      1.0000 0.83327  0.03455  0.69286  Biso   1.000  H
  H22      1.0000 0.89310  0.18020  0.62300  Biso   1.000  H
  H23      1.0000 0.19282  0.93936  0.33326  Biso   1.000  H
  H24      1.0000 0.12296  0.80371  0.39312  Biso   1.000  H
  H25      1.0000 0.53550  0.93469  0.69778  Biso   1.000  H
  H26      1.0000 0.68155  0.79916  0.62691  Biso   1.000  H
  H27      1.0000 0.43473  0.03551  0.33199  Biso   1.000  H
  H28      1.0000 0.29927  0.18160  0.39228  Biso   1.000  H
  H29      1.0000 0.19774  0.33208  0.03554  Biso   1.000  H
  H30      1.0000 0.12691  0.39233  0.18159  Biso   1.000  H
  H31      1.0000 0.83206  0.69771  0.93471  Biso   1.000  H
  H32      1.0000 0.89228  0.62683  0.79928  Biso   1.000  H
  H33      1.0000 0.82977  0.03536  0.93947  Biso   1.000  H
  H34      1.0000 0.88711  0.18198  0.80317  Biso   1.000  H
  H35      1.0000 0.19539  0.93946  0.03540  Biso   1.000  H
  H36      1.0000 0.12766  0.80319  0.18208  Biso   1.000  H
  H37      1.0000 0.53545  0.32983  0.69528  Biso   1.000  H
  H38      1.0000 0.68210  0.38705  0.62768  Biso   1.000  H
  H39      1.0000 0.43947  0.69529  0.32983  Biso   1.000  H
  H40      1.0000 0.30314  0.62771  0.38710  Biso   1.000  H
  C1       1.0000 0.72877  0.51370  0.76120  Biso   1.000  C
  C2       1.0000 0.99629  0.76115  0.51378  Biso   1.000  C
  C3       1.0000 0.26119  0.49630  0.22878  Biso   1.000  C
  C4       1.0000 0.01372  0.22879  0.49627  Biso   1.000  C
  C5       1.0000 0.01013  0.22935  0.76007  Biso   1.000  C
  C6       1.0000 0.72943  0.51006  0.50040  Biso   1.000  C
  C7       1.0000 0.00038  0.76009  0.22942  Biso   1.000  C
  C8       1.0000 0.26006  0.50043  0.51012  Biso   1.000  C
  C9       1.0000 0.01373  0.49590  0.76094  Biso   1.000  C
  C10      1.0000 0.26095  0.22943  0.51370  Biso   1.000  C
  C11      1.0000 0.99592  0.51371  0.22944  Biso   1.000  C
  C12      1.0000 0.72940  0.76087  0.49597  Biso   1.000  C
  C13      1.0000 0.58911  0.46201  0.89063  Biso   1.000  C
  C14      1.0000 0.60501  0.60276  0.87499  Biso   1.000  C
  C15      1.0000 0.52377  0.61604  0.95311  Biso   1.000  C
  C16      1.0000 0.47226  0.55015  0.00530  Biso   1.000  C
  C17      1.0000 0.39059  0.55825  0.08912  Biso   1.000  C
  C18      1.0000 0.37495  0.41725  0.10500  Biso   1.000  C
  C19      1.0000 0.45309  0.40707  0.02378  Biso   1.000  C
  C20      1.0000 0.50528  0.47228  0.97228  Biso   1.000  C
  C21      1.0000 0.63964  0.52575  0.84291  Biso   1.000  C
  C22      1.0000 0.34287  0.49170  0.13963  Biso   1.000  C
  C23      1.0000 0.96204  0.08911  0.55826  Biso   1.000  C
  C24      1.0000 0.10277  0.10499  0.41726  Biso   1.000  C
  C25      1.0000 0.11603  0.02375  0.40712  Biso   1.000  C
  C26      1.0000 0.05014  0.97225  0.47233  Biso   1.000  C
  C27      1.0000 0.05822  0.89059  0.46207  Biso   1.000  C
  C28      1.0000 0.91725  0.87494  0.60283  Biso   1.000  C
  C29      1.0000 0.90710  0.95308  0.61608  Biso   1.000  C
  C30      1.0000 0.97230  0.00527  0.55018  Biso   1.000  C
  C31      1.0000 0.02578  0.13963  0.49170  Biso   1.000  C
  C32      1.0000 0.99168  0.84286  0.52583  Biso   1.000  C
  C33      1.0000 0.58824  0.88749  0.56125  Biso   1.000  C
  C34      1.0000 0.60401  0.87389  0.41674  Biso   1.000  C
  C35      1.0000 0.52118  0.95228  0.40687  Biso   1.000  C
  C36      1.0000 0.46976  0.00344  0.47378  Biso   1.000  C
  C37      1.0000 0.38753  0.08824  0.46299  Biso   1.000  C
  C38      1.0000 0.37390  0.10398  0.60536  Biso   1.000  C
  C39      1.0000 0.45228  0.02115  0.61968  Biso   1.000  C
  C40      1.0000 0.50345  0.96974  0.55302  Biso   1.000  C
  C41      1.0000 0.63877  0.84143  0.49268  Biso   1.000  C
  C42      1.0000 0.34147  0.13877  0.52709  Biso   1.000  C
  C43      1.0000 0.06127  0.46302  0.08824  Biso   1.000  C
  C44      1.0000 0.91679  0.60536  0.10399  Biso   1.000  C
  C45      1.0000 0.90694  0.61967  0.02116  Biso   1.000  C
  C46      1.0000 0.97383  0.55302  0.96975  Biso   1.000  C
  C47      1.0000 0.96303  0.56121  0.88753  Biso   1.000  C
  C48      1.0000 0.10537  0.41674  0.87391  Biso   1.000  C
  C49      1.0000 0.11970  0.40691  0.95227  Biso   1.000  C
  C50      1.0000 0.05305  0.47381  0.00344  Biso   1.000  C
  C51      1.0000 0.99270  0.52710  0.13878  Biso   1.000  C
  C52      1.0000 0.02711  0.49265  0.84147  Biso   1.000  C
  C53      1.0000 0.95943  0.08947  0.89008  Biso   1.000  C
  C54      1.0000 0.10173  0.10552  0.87377  Biso   1.000  C
  C55      1.0000 0.11663  0.02398  0.95274  Biso   1.000  C
  C56      1.0000 0.05109  0.97216  0.00513  Biso   1.000  C
  C57      1.0000 0.06098  0.89008  0.08954  Biso   1.000  C
  C58      1.0000 0.91896  0.87376  0.10556  Biso   1.000  C
  C59      1.0000 0.90664  0.95271  0.02400  Biso   1.000  C
  C60      1.0000 0.97163  0.00509  0.97218  Biso   1.000  C
  C61      1.0000 0.02310  0.13980  0.84210  Biso   1.000  C
  C62      1.0000 0.99495  0.84210  0.13986  Biso   1.000  C
  C63      1.0000 0.58954  0.45938  0.56099  Biso   1.000  C
  C64      1.0000 0.60558  0.60169  0.41899  Biso   1.000  C
  C65      1.0000 0.52401  0.61659  0.40667  Biso   1.000  C
  C66      1.0000 0.47219  0.55107  0.47163  Biso   1.000  C
  C67      1.0000 0.39008  0.56099  0.45942  Biso   1.000  C
  C68      1.0000 0.37375  0.41897  0.60172  Biso   1.000  C
  C69      1.0000 0.45273  0.40666  0.61662  Biso   1.000  C
  C70      1.0000 0.50512  0.47161  0.55109  Biso   1.000  C
  C71      1.0000 0.63986  0.52305  0.49498  Biso   1.000  C
  C72      1.0000 0.34209  0.49498  0.52310  Biso   1.000  C
  O1       1.0000 0.76164  0.44275  0.73099  Biso   1.000  O
  O2       1.0000 0.06455  0.73094  0.44284  Biso   1.000  O
  O3       1.0000 0.23099  0.56457  0.26167  Biso   1.000  O
  O4       1.0000 0.94278  0.26170  0.56453  Biso   1.000  O
  O5       1.0000 0.07099  0.27001  0.72319  Biso   1.000  O
  O6       1.0000 0.77009  0.57090  0.43577  Biso   1.000  O
  O7       1.0000 0.93573  0.72322  0.27006  Biso   1.000  O
  O8       1.0000 0.22316  0.43581  0.57098  Biso   1.000  O
  O9       1.0000 0.94189  0.56478  0.72955  Biso   1.000  O
  O10      1.0000 0.22956  0.26376  0.44185  Biso   1.000  O
  O11      1.0000 0.06481  0.44187  0.26380  Biso   1.000  O
  O12      1.0000 0.76374  0.72948  0.56487  Biso   1.000  O
  O13      1.0000 0.22594  0.27242  0.57329  Biso   1.000  O
  O14      1.0000 0.92835  0.57328  0.27243  Biso   1.000  O
  O15      1.0000 0.77235  0.72583  0.42844  Biso   1.000  O
  O16      1.0000 0.07332  0.42836  0.72591  Biso   1.000  O
  O17      1.0000 0.93691  0.26467  0.72941  Biso   1.000  O
  O18      1.0000 0.22939  0.56897  0.43691  Biso   1.000  O
  O19      1.0000 0.06893  0.72943  0.26476  Biso   1.000  O
  O20      1.0000 0.76478  0.43684  0.56893  Biso   1.000  O
  O21      1.0000 0.07386  0.27128  0.43072  Biso   1.000  O
  O22      1.0000 0.77126  0.57384  0.72412  Biso   1.000  O
  O23      1.0000 0.93076  0.72405  0.57393  Biso   1.000  O
  O24      1.0000 0.22411  0.43075  0.27126  Biso   1.000  O
  O25      1.0000 0.94150  0.44128  0.44192  Biso   1.000  O
  O26      1.0000 0.17527  0.44194  0.44130  Biso   1.000  O
  O27      1.0000 0.94191  0.67525  0.44152  Biso   1.000  O
  O28      1.0000 0.94130  0.44145  0.67527  Biso   1.000  O
  O29      1.0000 0.04310  0.54343  0.54282  Biso   1.000  O
  O30      1.0000 0.87063  0.54276  0.54346  Biso   1.000  O
  O31      1.0000 0.04346  0.54311  0.37060  Biso   1.000  O
  O32      1.0000 0.04283  0.37060  0.54307  Biso   1.000  O
  O33      1.0000 0.47718  0.33329  0.99666  Biso   1.000  O
  O34      1.0000 0.62021  0.38787  0.86015  Biso   1.000  O
  O35      1.0000 0.49664  0.69285  0.97720  Biso   1.000  O
  O36      1.0000 0.36010  0.63176  0.12023  Biso   1.000  O
  O37      1.0000 0.83335  0.97721  0.69286  Biso   1.000  O
  O38      1.0000 0.88793  0.12022  0.63177  Biso   1.000  O
  O39      1.0000 0.19281  0.99662  0.33336  Biso   1.000  O
  O40      1.0000 0.13170  0.86012  0.38793  Biso   1.000  O
  O41      1.0000 0.47776  0.99313  0.69717  Biso   1.000  O
  O42      1.0000 0.62017  0.85544  0.63604  Biso   1.000  O
  O43      1.0000 0.49318  0.97778  0.33190  Biso   1.000  O
  O44      1.0000 0.35551  0.12019  0.38829  Biso   1.000  O
  O45      1.0000 0.19716  0.33198  0.97778  Biso   1.000  O
  O46      1.0000 0.13604  0.38835  0.12019  Biso   1.000  O
  O47      1.0000 0.83199  0.69712  0.99314  Biso   1.000  O
  O48      1.0000 0.88833  0.63597  0.85552  Biso   1.000  O
  O49      1.0000 0.83132  0.97734  0.99709  Biso   1.000  O
  O50      1.0000 0.88370  0.12123  0.85945  Biso   1.000  O
  O51      1.0000 0.19423  0.99707  0.97738  Biso   1.000  O
  O52      1.0000 0.13554  0.85947  0.12133  Biso   1.000  O
  O53      1.0000 0.47739  0.33137  0.69420  Biso   1.000  O
  O54      1.0000 0.62134  0.38366  0.63554  Biso   1.000  O
  O55      1.0000 0.49708  0.69417  0.33137  Biso   1.000  O
  O56      1.0000 0.35944  0.63556  0.38371  Biso   1.000  O
