data_image0
_cell_length_a       13.1559
_cell_length_b       25.6799
_cell_length_c       25.6809
_cell_angle_alpha    119.99
_cell_angle_beta     90.0065
_cell_angle_gamma    89.9986

_symmetry_space_group_name_H-M    "P 1"
_symmetry_int_tables_number       1

loop_
  _symmetry_equiv_pos_as_xyz
  'x, y, z'

loop_
  _atom_site_label
  _atom_site_occupancy
  _atom_site_fract_x
  _atom_site_fract_y
  _atom_site_fract_z
  _atom_site_thermal_displace_type
  _atom_site_B_iso_or_equiv
  _atom_site_type_symbol
  Zn1      1.0000 0.51174  0.38092  0.28001  Biso   1.000  Zn
  Zn2      1.0000 0.84511  0.89908  0.61912  Biso   1.000  Zn
  Zn3      1.0000 0.17841  0.71999  0.10089  Biso   1.000  Zn
  Zn4      1.0000 0.15493  0.27997  0.38091  Biso   1.000  Zn
  Zn5      1.0000 0.82155  0.61912  0.89910  Biso   1.000  Zn
  Zn6      1.0000 0.48827  0.10088  0.71998  Biso   1.000  Zn
  Cd1      1.0000 0.99998  0.68779  0.99999  Biso   1.000  Cd
  Cd2      1.0000 0.33331  0.31224  0.31225  Biso   1.000  Cd
  Cd3      1.0000 0.66670  0.99997  0.68779  Biso   1.000  Cd
  H1       1.0000 0.33051  0.72821  0.56772  Biso   1.000  H
  H2       1.0000 0.66394  0.83948  0.27176  Biso   1.000  H
  H3       1.0000 0.99722  0.43224  0.16045  Biso   1.000  H
  H4       1.0000 0.33615  0.56771  0.72825  Biso   1.000  H
  H5       1.0000 0.00271  0.27177  0.83952  Biso   1.000  H
  H6       1.0000 0.66945  0.16043  0.43224  Biso   1.000  H
  H7       1.0000 0.16099  0.56051  0.52142  Biso   1.000  H
  H8       1.0000 0.49441  0.96094  0.43953  Biso   1.000  H
  H9       1.0000 0.82766  0.47860  0.03910  Biso   1.000  H
  H10      1.0000 0.50564  0.52143  0.56054  Biso   1.000  H
  H11      1.0000 0.17225  0.43953  0.96096  Biso   1.000  H
  H12      1.0000 0.83899  0.03910  0.47860  Biso   1.000  H
  H13      1.0000 0.21725  0.47290  0.42449  Biso   1.000  H
  H14      1.0000 0.55061  0.95154  0.52711  Biso   1.000  H
  H15      1.0000 0.88391  0.57555  0.04844  Biso   1.000  H
  H16      1.0000 0.44942  0.42449  0.47293  Biso   1.000  H
  H17      1.0000 0.11602  0.52712  0.95156  Biso   1.000  H
  H18      1.0000 0.78274  0.04843  0.57555  Biso   1.000  H
  H19      1.0000 0.03547  0.63182  0.67212  Biso   1.000  H
  H20      1.0000 0.36886  0.04027  0.36820  Biso   1.000  H
  H21      1.0000 0.70228  0.32786  0.95964  Biso   1.000  H
  H22      1.0000 0.63105  0.67209  0.63181  Biso   1.000  H
  H23      1.0000 0.29774  0.36824  0.04033  Biso   1.000  H
  H24      1.0000 0.96437  0.95961  0.32786  Biso   1.000  H
  H25      1.0000 0.19276  0.61469  0.62607  Biso   1.000  H
  H26      1.0000 0.52585  0.01122  0.38529  Biso   1.000  H
  H27      1.0000 0.85941  0.37397  0.98862  Biso   1.000  H
  H28      1.0000 0.47388  0.62604  0.61471  Biso   1.000  H
  H29      1.0000 0.14071  0.38531  0.01129  Biso   1.000  H
  H30      1.0000 0.80723  0.98860  0.37397  Biso   1.000  H
  H31      1.0000 0.49347  0.89699  0.62718  Biso   1.000  H
  H32      1.0000 0.82678  0.73024  0.10300  Biso   1.000  H
  H33      1.0000 0.16010  0.37278  0.26978  Biso   1.000  H
  H34      1.0000 0.17319  0.62719  0.89701  Biso   1.000  H
  H35      1.0000 0.83991  0.10299  0.73022  Biso   1.000  H
  H36      1.0000 0.50651  0.26975  0.37279  Biso   1.000  H
  H37      1.0000 0.44128  0.65148  0.53072  Biso   1.000  H
  H38      1.0000 0.77467  0.87925  0.34857  Biso   1.000  H
  H39      1.0000 0.10796  0.46929  0.12078  Biso   1.000  H
  H40      1.0000 0.22537  0.53067  0.65148  Biso   1.000  H
  H41      1.0000 0.89198  0.34855  0.87925  Biso   1.000  H
  H42      1.0000 0.55868  0.12073  0.46926  Biso   1.000  H
  H43      1.0000 0.93984  0.62039  0.74941  Biso   1.000  H
  H44      1.0000 0.27321  0.12896  0.37961  Biso   1.000  H
  H45      1.0000 0.60653  0.25060  0.87098  Biso   1.000  H
  H46      1.0000 0.72669  0.74938  0.62035  Biso   1.000  H
  H47      1.0000 0.39340  0.37965  0.12903  Biso   1.000  H
  H48      1.0000 0.06013  0.87097  0.25060  Biso   1.000  H
  H49      1.0000 0.20101  0.80622  0.74479  Biso   1.000  H
  H50      1.0000 0.53441  0.93862  0.19380  Biso   1.000  H
  H51      1.0000 0.86772  0.25516  0.06135  Biso   1.000  H
  H52      1.0000 0.46563  0.74479  0.80623  Biso   1.000  H
  H53      1.0000 0.13224  0.19380  0.93865  Biso   1.000  H
  H54      1.0000 0.79890  0.06134  0.25517  Biso   1.000  H
  H55      1.0000 0.17996  0.88440  0.72848  Biso   1.000  H
  H56      1.0000 0.51332  0.84415  0.11549  Biso   1.000  H
  H57      1.0000 0.84664  0.27141  0.15586  Biso   1.000  H
  H58      1.0000 0.48671  0.72852  0.88444  Biso   1.000  H
  H59      1.0000 0.15332  0.11552  0.84420  Biso   1.000  H
  H60      1.0000 0.82002  0.15590  0.27146  Biso   1.000  H
  H61      1.0000 0.49615  0.56367  0.43371  Biso   1.000  H
  H62      1.0000 0.82947  0.86996  0.43637  Biso   1.000  H
  H63      1.0000 0.16278  0.56635  0.13003  Biso   1.000  H
  H64      1.0000 0.17051  0.43365  0.56367  Biso   1.000  H
  H65      1.0000 0.83717  0.43634  0.86996  Biso   1.000  H
  H66      1.0000 0.50387  0.13000  0.56632  Biso   1.000  H
  H67      1.0000 0.43717  0.79888  0.61255  Biso   1.000  H
  H68      1.0000 0.77032  0.81361  0.20110  Biso   1.000  H
  H69      1.0000 0.10373  0.38747  0.18635  Biso   1.000  H
  H70      1.0000 0.22951  0.61255  0.79890  Biso   1.000  H
  H71      1.0000 0.89633  0.20110  0.81360  Biso   1.000  H
  H72      1.0000 0.56288  0.18631  0.38745  Biso   1.000  H
  H73      1.0000 0.24264  0.98380  0.74688  Biso   1.000  H
  H74      1.0000 0.57609  0.76322  0.01612  Biso   1.000  H
  H75      1.0000 0.90939  0.25296  0.23682  Biso   1.000  H
  H76      1.0000 0.42399  0.74695  0.98383  Biso   1.000  H
  H77      1.0000 0.09058  0.01614  0.76326  Biso   1.000  H
  H78      1.0000 0.75726  0.23688  0.25305  Biso   1.000  H
  H79      1.0000 0.21604  0.77173  0.81178  Biso   1.000  H
  H80      1.0000 0.54936  0.04003  0.22829  Biso   1.000  H
  H81      1.0000 0.88273  0.18817  0.95992  Biso   1.000  H
  H82      1.0000 0.45062  0.81178  0.77175  Biso   1.000  H
  H83      1.0000 0.11730  0.22827  0.04005  Biso   1.000  H
  H84      1.0000 0.78392  0.95991  0.18817  Biso   1.000  H
  H85      1.0000 0.11998  0.75960  0.88856  Biso   1.000  H
  H86      1.0000 0.45323  0.12890  0.24036  Biso   1.000  H
  H87      1.0000 0.78652  0.11140  0.87108  Biso   1.000  H
  H88      1.0000 0.54675  0.88856  0.75963  Biso   1.000  H
  H89      1.0000 0.21341  0.24037  0.12894  Biso   1.000  H
  H90      1.0000 0.88017  0.87111  0.11140  Biso   1.000  H
  C1       1.0000 0.29345  0.72309  0.60272  Biso   1.000  C
  C2       1.0000 0.62680  0.87958  0.27688  Biso   1.000  C
  C3       1.0000 0.96015  0.39725  0.12034  Biso   1.000  C
  C4       1.0000 0.37321  0.60270  0.72312  Biso   1.000  C
  C5       1.0000 0.03983  0.27689  0.87962  Biso   1.000  C
  C6       1.0000 0.70650  0.12032  0.39725  Biso   1.000  C
  C7       1.0000 0.29670  0.61257  0.53284  Biso   1.000  C
  C8       1.0000 0.63004  0.92020  0.38742  Biso   1.000  C
  C9       1.0000 0.96339  0.46716  0.07973  Biso   1.000  C
  C10      1.0000 0.36995  0.53281  0.61260  Biso   1.000  C
  C11      1.0000 0.03660  0.38743  0.92024  Biso   1.000  C
  C12      1.0000 0.70326  0.07971  0.46715  Biso   1.000  C
  C13      1.0000 0.35966  0.51316  0.42300  Biso   1.000  C
  C14      1.0000 0.69298  0.90974  0.48684  Biso   1.000  C
  C15      1.0000 0.02633  0.57703  0.09019  Biso   1.000  C
  C16      1.0000 0.30701  0.42296  0.51318  Biso   1.000  C
  C17      1.0000 0.97365  0.48684  0.90976  Biso   1.000  C
  C18      1.0000 0.64032  0.09016  0.57701  Biso   1.000  C
  C19      1.0000 0.23451  0.56141  0.50252  Biso   1.000  C
  C20      1.0000 0.56788  0.94107  0.43860  Biso   1.000  C
  C21      1.0000 0.90118  0.49750  0.05890  Biso   1.000  C
  C22      1.0000 0.43214  0.50251  0.56144  Biso   1.000  C
  C23      1.0000 0.09876  0.43860  0.94110  Biso   1.000  C
  C24      1.0000 0.76547  0.05889  0.49750  Biso   1.000  C
  C25      1.0000 0.26528  0.51245  0.44818  Biso   1.000  C
  C26      1.0000 0.59863  0.93566  0.48756  Biso   1.000  C
  C27      1.0000 0.93195  0.55185  0.06430  Biso   1.000  C
  C28      1.0000 0.40138  0.44816  0.51248  Biso   1.000  C
  C29      1.0000 0.06801  0.48756  0.93569  Biso   1.000  C
  C30      1.0000 0.73471  0.06428  0.55185  Biso   1.000  C
  C31      1.0000 0.26569  0.66536  0.59041  Biso   1.000  C
  C32      1.0000 0.59900  0.92497  0.33462  Biso   1.000  C
  C33      1.0000 0.93238  0.40957  0.07492  Biso   1.000  C
  C34      1.0000 0.40096  0.59039  0.66539  Biso   1.000  C
  C35      1.0000 0.06762  0.33463  0.92502  Biso   1.000  C
  C36      1.0000 0.73426  0.07490  0.40957  Biso   1.000  C
  C37      1.0000 0.27122  0.77440  0.65803  Biso   1.000  C
  C38      1.0000 0.60451  0.88360  0.22557  Biso   1.000  C
  C39      1.0000 0.93790  0.34192  0.11632  Biso   1.000  C
  C40      1.0000 0.39544  0.65802  0.77443  Biso   1.000  C
  C41      1.0000 0.06212  0.22558  0.88364  Biso   1.000  C
  C42      1.0000 0.72873  0.11631  0.34193  Biso   1.000  C
  C43      1.0000 0.05482  0.65958  0.71944  Biso   1.000  C
  C44      1.0000 0.38819  0.05982  0.34043  Biso   1.000  C
  C45      1.0000 0.72159  0.28054  0.94009  Biso   1.000  C
  C46      1.0000 0.61174  0.71942  0.65957  Biso   1.000  C
  C47      1.0000 0.27842  0.34046  0.05988  Biso   1.000  C
  C48      1.0000 0.94506  0.94007  0.28054  Biso   1.000  C
  C49      1.0000 0.37156  0.94659  0.68832  Biso   1.000  C
  C50      1.0000 0.70490  0.74180  0.05336  Biso   1.000  C
  C51      1.0000 0.03824  0.31158  0.25821  Biso   1.000  C
  C52      1.0000 0.29510  0.68836  0.94661  Biso   1.000  C
  C53      1.0000 0.96177  0.05336  0.74181  Biso   1.000  C
  C54      1.0000 0.62839  0.25822  0.31162  Biso   1.000  C
  C55      1.0000 0.96770  0.68129  0.86982  Biso   1.000  C
  C56      1.0000 0.30109  0.18852  0.31874  Biso   1.000  C
  C57      1.0000 0.63444  0.13018  0.81143  Biso   1.000  C
  C58      1.0000 0.69892  0.86979  0.68128  Biso   1.000  C
  C59      1.0000 0.36557  0.31875  0.18856  Biso   1.000  C
  C60      1.0000 0.03223  0.81143  0.13018  Biso   1.000  C
  C61      1.0000 0.21178  0.65938  0.63429  Biso   1.000  C
  C62      1.0000 0.54499  0.97479  0.34059  Biso   1.000  C
  C63      1.0000 0.87847  0.36571  0.02507  Biso   1.000  C
  C64      1.0000 0.45487  0.63426  0.65941  Biso   1.000  C
  C65      1.0000 0.12160  0.34061  0.97485  Biso   1.000  C
  C66      1.0000 0.78817  0.02505  0.36571  Biso   1.000  C
  C67      1.0000 0.18821  0.70985  0.69012  Biso   1.000  C
  C68      1.0000 0.52151  0.98022  0.29014  Biso   1.000  C
  C69      1.0000 0.85496  0.30985  0.01967  Biso   1.000  C
  C70      1.0000 0.47842  0.69011  0.70987  Biso   1.000  C
  C71      1.0000 0.14511  0.29016  0.98027  Biso   1.000  C
  C72      1.0000 0.81168  0.01965  0.30985  Biso   1.000  C
  C73      1.0000 0.42530  0.89396  0.64948  Biso   1.000  C
  C74      1.0000 0.75859  0.75555  0.10601  Biso   1.000  C
  C75      1.0000 0.09194  0.35047  0.24445  Biso   1.000  C
  C76      1.0000 0.24136  0.64949  0.89398  Biso   1.000  C
  C77      1.0000 0.90808  0.10600  0.75555  Biso   1.000  C
  C78      1.0000 0.57468  0.24444  0.35049  Biso   1.000  C
  C79      1.0000 0.39132  0.61277  0.50717  Biso   1.000  C
  C80      1.0000 0.72467  0.89435  0.38725  Biso   1.000  C
  C81      1.0000 0.05800  0.49284  0.10562  Biso   1.000  C
  C82      1.0000 0.27533  0.50713  0.61278  Biso   1.000  C
  C83      1.0000 0.94197  0.38724  0.89436  Biso   1.000  C
  C84      1.0000 0.60865  0.10559  0.49283  Biso   1.000  C
  C85      1.0000 0.13246  0.70284  0.73631  Biso   1.000  C
  C86      1.0000 0.46580  0.03344  0.29717  Biso   1.000  C
  C87      1.0000 0.79922  0.26366  0.96647  Biso   1.000  C
  C88      1.0000 0.53414  0.73630  0.70285  Biso   1.000  C
  C89      1.0000 0.20082  0.29719  0.03348  Biso   1.000  C
  C90      1.0000 0.86742  0.96646  0.26367  Biso   1.000  C
  C91      1.0000 0.39345  0.45959  0.36617  Biso   1.000  C
  C92      1.0000 0.72681  0.90645  0.54041  Biso   1.000  C
  C93      1.0000 0.06017  0.63385  0.09343  Biso   1.000  C
  C94      1.0000 0.27323  0.36612  0.45961  Biso   1.000  C
  C95      1.0000 0.93983  0.54041  0.90649  Biso   1.000  C
  C96      1.0000 0.60650  0.09341  0.63383  Biso   1.000  C
  C97      1.0000 0.30394  0.83410  0.66897  Biso   1.000  C
  C98      1.0000 0.63719  0.83486  0.16585  Biso   1.000  C
  C99      1.0000 0.97057  0.33098  0.16510  Biso   1.000  C
  C100     1.0000 0.36273  0.66898  0.83413  Biso   1.000  C
  C101     1.0000 0.02944  0.16586  0.83489  Biso   1.000  C
  C102     1.0000 0.69606  0.16510  0.33100  Biso   1.000  C
  C103     1.0000 0.00061  0.65327  0.76251  Biso   1.000  C
  C104     1.0000 0.33397  0.10919  0.34673  Biso   1.000  C
  C105     1.0000 0.66732  0.23748  0.89074  Biso   1.000  C
  C106     1.0000 0.66596  0.76248  0.65325  Biso   1.000  C
  C107     1.0000 0.33265  0.34676  0.10925  Biso   1.000  C
  C108     1.0000 0.99934  0.89073  0.23749  Biso   1.000  C
  C109     1.0000 0.21891  0.76704  0.70156  Biso   1.000  C
  C110     1.0000 0.55224  0.93451  0.23296  Biso   1.000  C
  C111     1.0000 0.88563  0.29840  0.06542  Biso   1.000  C
  C112     1.0000 0.44774  0.70155  0.76706  Biso   1.000  C
  C113     1.0000 0.11440  0.23297  0.93455  Biso   1.000  C
  C114     1.0000 0.78100  0.06540  0.29840  Biso   1.000  C
  C115     1.0000 0.24986  0.88707  0.70729  Biso   1.000  C
  C116     1.0000 0.58319  0.82026  0.11286  Biso   1.000  C
  C117     1.0000 0.91653  0.29262  0.17973  Biso   1.000  C
  C118     1.0000 0.41681  0.70732  0.88711  Biso   1.000  C
  C119     1.0000 0.08345  0.11287  0.82031  Biso   1.000  C
  C120     1.0000 0.75011  0.17976  0.29267  Biso   1.000  C
  C121     1.0000 0.42265  0.56377  0.45310  Biso   1.000  C
  C122     1.0000 0.75597  0.88925  0.43625  Biso   1.000  C
  C123     1.0000 0.08930  0.54694  0.11071  Biso   1.000  C
  C124     1.0000 0.24402  0.45305  0.56378  Biso   1.000  C
  C125     1.0000 0.91067  0.43624  0.88926  Biso   1.000  C
  C126     1.0000 0.57735  0.11068  0.54692  Biso   1.000  C
  C127     1.0000 0.02340  0.68963  0.82384  Biso   1.000  C
  C128     1.0000 0.35673  0.13418  0.31037  Biso   1.000  C
  C129     1.0000 0.69008  0.17614  0.86577  Biso   1.000  C
  C130     1.0000 0.64322  0.82382  0.68962  Biso   1.000  C
  C131     1.0000 0.30990  0.31039  0.13422  Biso   1.000  C
  C132     1.0000 0.97659  0.86577  0.17614  Biso   1.000  C
  C133     1.0000 0.39220  0.83881  0.64053  Biso   1.000  C
  C134     1.0000 0.72542  0.80170  0.16115  Biso   1.000  C
  C135     1.0000 0.05880  0.35944  0.19827  Biso   1.000  C
  C136     1.0000 0.27448  0.64053  0.83883  Biso   1.000  C
  C137     1.0000 0.94123  0.16115  0.80171  Biso   1.000  C
  C138     1.0000 0.60782  0.19825  0.35945  Biso   1.000  C
  C139     1.0000 0.28359  0.94269  0.71715  Biso   1.000  C
  C140     1.0000 0.61697  0.77454  0.05724  Biso   1.000  C
  C141     1.0000 0.95030  0.28274  0.22548  Biso   1.000  C
  C142     1.0000 0.38306  0.71719  0.94273  Biso   1.000  C
  C143     1.0000 0.04969  0.05725  0.77457  Biso   1.000  C
  C144     1.0000 0.71635  0.22551  0.28280  Biso   1.000  C
  C145     1.0000 0.41033  0.00477  0.69868  Biso   1.000  C
  C146     1.0000 0.74365  0.69394  0.99519  Biso   1.000  C
  C147     1.0000 0.07697  0.30124  0.30606  Biso   1.000  C
  C148     1.0000 0.25633  0.69870  0.00479  Biso   1.000  C
  C149     1.0000 0.92303  0.99518  0.69395  Biso   1.000  C
  C150     1.0000 0.58965  0.30607  0.30127  Biso   1.000  C
  C151     1.0000 0.15446  0.73920  0.79793  Biso   1.000  C
  C152     1.0000 0.48779  0.05870  0.26081  Biso   1.000  C
  C153     1.0000 0.82117  0.20204  0.94125  Biso   1.000  C
  C154     1.0000 0.51218  0.79792  0.73922  Biso   1.000  C
  C155     1.0000 0.17885  0.26081  0.05873  Biso   1.000  C
  C156     1.0000 0.84549  0.94124  0.20204  Biso   1.000  C
  C157     1.0000 0.10122  0.73253  0.84111  Biso   1.000  C
  C158     1.0000 0.43452  0.10854  0.26746  Biso   1.000  C
  C159     1.0000 0.76786  0.15887  0.89142  Biso   1.000  C
  C160     1.0000 0.56544  0.84109  0.73254  Biso   1.000  C
  C161     1.0000 0.23212  0.26747  0.10858  Biso   1.000  C
  C162     1.0000 0.89881  0.89143  0.15887  Biso   1.000  C
  O1       1.0000 0.99930  0.70899  0.92371  Biso   1.000  O
  O2       1.0000 0.33272  0.21474  0.29106  Biso   1.000  O
  O3       1.0000 0.66599  0.07628  0.78526  Biso   1.000  O
  O4       1.0000 0.66739  0.92370  0.70901  Biso   1.000  O
  O5       1.0000 0.33397  0.29104  0.21475  Biso   1.000  O
  O6       1.0000 0.00066  0.78526  0.07628  Biso   1.000  O
  O7       1.0000 0.48399  0.46146  0.34689  Biso   1.000  O
  O8       1.0000 0.81732  0.88524  0.53851  Biso   1.000  O
  O9       1.0000 0.15070  0.65315  0.11463  Biso   1.000  O
  O10      1.0000 0.18270  0.34681  0.46148  Biso   1.000  O
  O11      1.0000 0.84930  0.53852  0.88530  Biso   1.000  O
  O12      1.0000 0.51599  0.11462  0.65314  Biso   1.000  O
  O13      1.0000 0.49575  0.00557  0.67352  Biso   1.000  O
  O14      1.0000 0.82904  0.66795  0.99440  Biso   1.000  O
  O15      1.0000 0.16236  0.32643  0.33206  Biso   1.000  O
  O16      1.0000 0.17093  0.67352  0.00558  Biso   1.000  O
  O17      1.0000 0.83766  0.99438  0.66794  Biso   1.000  O
  O18      1.0000 0.50425  0.33205  0.32645  Biso   1.000  O
  O19      1.0000 0.89014  0.64555  0.85008  Biso   1.000  O
  O20      1.0000 0.22356  0.20454  0.35449  Biso   1.000  O
  O21      1.0000 0.55698  0.14994  0.79536  Biso   1.000  O
  O22      1.0000 0.77642  0.85004  0.64550  Biso   1.000  O
  O23      1.0000 0.44307  0.35453  0.20459  Biso   1.000  O
  O24      1.0000 0.10968  0.79537  0.14994  Biso   1.000  O
  O25      1.0000 0.33416  0.41487  0.33922  Biso   1.000  O
  O26      1.0000 0.66760  0.92428  0.58517  Biso   1.000  O
  O27      1.0000 0.00094  0.66077  0.07560  Biso   1.000  O
  O28      1.0000 0.33250  0.33921  0.41488  Biso   1.000  O
  O29      1.0000 0.99907  0.58516  0.92429  Biso   1.000  O
  O30      1.0000 0.66574  0.07556  0.66075  Biso   1.000  O
  O31      1.0000 0.36435  0.05463  0.73078  Biso   1.000  O
  O32      1.0000 0.69764  0.67618  0.94534  Biso   1.000  O
  O33      1.0000 0.03099  0.26913  0.32382  Biso   1.000  O
  O34      1.0000 0.30231  0.73081  0.05465  Biso   1.000  O
  O35      1.0000 0.96902  0.94533  0.67621  Biso   1.000  O
  O36      1.0000 0.63566  0.32383  0.26918  Biso   1.000  O
