data_image0
_cell_length_a       36.4377
_cell_length_b       36.9229
_cell_length_c       36.8664
_cell_angle_alpha    90.0094
_cell_angle_beta     90.0106
_cell_angle_gamma    90.1371

_symmetry_space_group_name_H-M    "P 1"
_symmetry_int_tables_number       1

loop_
  _symmetry_equiv_pos_as_xyz
  'x, y, z'

loop_
  _atom_site_label
  _atom_site_occupancy
  _atom_site_fract_x
  _atom_site_fract_y
  _atom_site_fract_z
  _atom_site_thermal_displace_type
  _atom_site_B_iso_or_equiv
  _atom_site_type_symbol
  Cu1      1.0000 0.87525  0.90931  0.84218  Biso   1.000  Cu
  Cu2      1.0000 0.83840  0.87326  0.91227  Biso   1.000  Cu
  Cu3      1.0000 0.91045  0.83830  0.87679  Biso   1.000  Cu
  Cu4      1.0000 0.12617  0.59199  0.34072  Biso   1.000  Cu
  Cu5      1.0000 0.16156  0.62658  0.41236  Biso   1.000  Cu
  Cu6      1.0000 0.09118  0.66279  0.37512  Biso   1.000  Cu
  Cu7      1.0000 0.37591  0.09069  0.65772  Biso   1.000  Cu
  Cu8      1.0000 0.33926  0.12643  0.58765  Biso   1.000  Cu
  Cu9      1.0000 0.41108  0.16237  0.62343  Biso   1.000  Cu
  Cu10     1.0000 0.62576  0.40766  0.15939  Biso   1.000  Cu
  Cu11     1.0000 0.66058  0.37367  0.08752  Biso   1.000  Cu
  Cu12     1.0000 0.58890  0.33765  0.12350  Biso   1.000  Cu
  H1       1.0000 0.82232  0.97697  0.83082  Biso   1.000  H
  H2       1.0000 0.77064  0.92691  0.92406  Biso   1.000  H
  H3       1.0000 0.97788  0.82588  0.82255  Biso   1.000  H
  H4       1.0000 0.92915  0.92163  0.77491  Biso   1.000  H
  H5       1.0000 0.82504  0.81828  0.97782  Biso   1.000  H
  H6       1.0000 0.92366  0.77239  0.93118  Biso   1.000  H
  H7       1.0000 0.17994  0.52523  0.32845  Biso   1.000  H
  H8       1.0000 0.22889  0.57250  0.42458  Biso   1.000  H
  H9       1.0000 0.02433  0.67603  0.32029  Biso   1.000  H
  H10      1.0000 0.07073  0.57809  0.27479  Biso   1.000  H
  H11      1.0000 0.17216  0.67935  0.48026  Biso   1.000  H
  H12      1.0000 0.07864  0.72976  0.42837  Biso   1.000  H
  H13      1.0000 0.32267  0.02292  0.66931  Biso   1.000  H
  H14      1.0000 0.27095  0.07298  0.57621  Biso   1.000  H
  H15      1.0000 0.47874  0.17445  0.67746  Biso   1.000  H
  H16      1.0000 0.42973  0.07845  0.72475  Biso   1.000  H
  H17      1.0000 0.32720  0.17979  0.52077  Biso   1.000  H
  H18      1.0000 0.42248  0.22971  0.57039  Biso   1.000  H
  H19      1.0000 0.68111  0.47330  0.17311  Biso   1.000  H
  H20      1.0000 0.72677  0.42919  0.07403  Biso   1.000  H
  H21      1.0000 0.52051  0.32638  0.17679  Biso   1.000  H
  H22      1.0000 0.57229  0.41959  0.22678  Biso   1.000  H
  H23      1.0000 0.67244  0.32027  0.02057  Biso   1.000  H
  H24      1.0000 0.57708  0.27059  0.07026  Biso   1.000  H
  H25      1.0000 0.66254  0.00617  0.86023  Biso   1.000  H
  H26      1.0000 0.61495  0.05413  0.85947  Biso   1.000  H
  H27      1.0000 0.69609  0.13312  0.89062  Biso   1.000  H
  H28      1.0000 0.74365  0.08515  0.89176  Biso   1.000  H
  H29      1.0000 0.25644  0.41537  0.39132  Biso   1.000  H
  H30      1.0000 0.30372  0.36713  0.39037  Biso   1.000  H
  H31      1.0000 0.38534  0.44558  0.35913  Biso   1.000  H
  H32      1.0000 0.33802  0.49379  0.35970  Biso   1.000  H
  H33      1.0000 0.16253  0.99360  0.63991  Biso   1.000  H
  H34      1.0000 0.11480  0.94557  0.64062  Biso   1.000  H
  H35      1.0000 0.19573  0.86669  0.60965  Biso   1.000  H
  H36      1.0000 0.24343  0.91474  0.60855  Biso   1.000  H
  H37      1.0000 0.80126  0.54240  0.06631  Biso   1.000  H
  H38      1.0000 0.84887  0.59050  0.06707  Biso   1.000  H
  H39      1.0000 0.84067  0.59676  0.18335  Biso   1.000  H
  H40      1.0000 0.79331  0.54842  0.18275  Biso   1.000  H
  H41      1.0000 0.00626  0.85871  0.66534  Biso   1.000  H
  H42      1.0000 0.05373  0.85950  0.61711  Biso   1.000  H
  H43      1.0000 0.13514  0.89089  0.69574  Biso   1.000  H
  H44      1.0000 0.08764  0.89050  0.74394  Biso   1.000  H
  H45      1.0000 0.49330  0.35864  0.33512  Biso   1.000  H
  H46      1.0000 0.44568  0.35966  0.38322  Biso   1.000  H
  H47      1.0000 0.36465  0.39066  0.30422  Biso   1.000  H
  H48      1.0000 0.41230  0.39003  0.25614  Biso   1.000  H
  H49      1.0000 0.94921  0.68384  0.20743  Biso   1.000  H
  H50      1.0000 0.90141  0.68296  0.15955  Biso   1.000  H
  H51      1.0000 0.90952  0.56686  0.15332  Biso   1.000  H
  H52      1.0000 0.95706  0.56759  0.20145  Biso   1.000  H
  H53      1.0000 0.50675  0.14093  0.83471  Biso   1.000  H
  H54      1.0000 0.55415  0.13998  0.88302  Biso   1.000  H
  H55      1.0000 0.63556  0.10902  0.80441  Biso   1.000  H
  H56      1.0000 0.58812  0.10957  0.75612  Biso   1.000  H
  H57      1.0000 0.81583  0.70476  0.05052  Biso   1.000  H
  H58      1.0000 0.81613  0.65743  0.09825  Biso   1.000  H
  H59      1.0000 0.93394  0.65221  0.09228  Biso   1.000  H
  H60      1.0000 0.93380  0.69976  0.04477  Biso   1.000  H
  H61      1.0000 0.38896  0.25777  0.41241  Biso   1.000  H
  H62      1.0000 0.38883  0.30523  0.36477  Biso   1.000  H
  H63      1.0000 0.36045  0.38528  0.44481  Biso   1.000  H
  H64      1.0000 0.36016  0.33779  0.49243  Biso   1.000  H
  H65      1.0000 0.63933  0.16241  0.99252  Biso   1.000  H
  H66      1.0000 0.63931  0.11478  0.94503  Biso   1.000  H
  H67      1.0000 0.61074  0.19448  0.86473  Biso   1.000  H
  H68      1.0000 0.61034  0.24208  0.91225  Biso   1.000  H
  H69      1.0000 0.11002  0.75754  0.58783  Biso   1.000  H
  H70      1.0000 0.11028  0.80512  0.63535  Biso   1.000  H
  H71      1.0000 0.13893  0.88500  0.55514  Biso   1.000  H
  H72      1.0000 0.13909  0.83741  0.50764  Biso   1.000  H
  C1       1.0000 0.81440  0.96014  0.85356  Biso   1.000  C
  C2       1.0000 0.78442  0.96398  0.87739  Biso   1.000  C
  C3       1.0000 0.78785  0.93443  0.90133  Biso   1.000  C
  C4       1.0000 0.96138  0.84922  0.81563  Biso   1.000  C
  C5       1.0000 0.96560  0.87379  0.78667  Biso   1.000  C
  C6       1.0000 0.93634  0.89828  0.79116  Biso   1.000  C
  C7       1.0000 0.84904  0.81172  0.96183  Biso   1.000  C
  C8       1.0000 0.87441  0.78333  0.96652  Biso   1.000  C
  C9       1.0000 0.89967  0.78824  0.93796  Biso   1.000  C
  C10      1.0000 0.18721  0.54138  0.35190  Biso   1.000  C
  C11      1.0000 0.21643  0.53677  0.37650  Biso   1.000  C
  C12      1.0000 0.21235  0.56565  0.40116  Biso   1.000  C
  C13      1.0000 0.04036  0.65225  0.31378  Biso   1.000  C
  C14      1.0000 0.03529  0.62692  0.28557  Biso   1.000  C
  C15      1.0000 0.06411  0.60196  0.29049  Biso   1.000  C
  C16      1.0000 0.14945  0.68700  0.46299  Biso   1.000  C
  C17      1.0000 0.12521  0.71651  0.46637  Biso   1.000  C
  C18      1.0000 0.10154  0.71291  0.43633  Biso   1.000  C
  C19      1.0000 0.31477  0.03974  0.64658  Biso   1.000  C
  C20      1.0000 0.28468  0.03591  0.62285  Biso   1.000  C
  C21      1.0000 0.28819  0.06546  0.59889  Biso   1.000  C
  C22      1.0000 0.46217  0.15107  0.68431  Biso   1.000  C
  C23      1.0000 0.46629  0.12642  0.71321  Biso   1.000  C
  C24      1.0000 0.43699  0.10188  0.70860  Biso   1.000  C
  C25      1.0000 0.35045  0.18730  0.53746  Biso   1.000  C
  C26      1.0000 0.37479  0.21676  0.53361  Biso   1.000  C
  C27      1.0000 0.39927  0.21293  0.56295  Biso   1.000  C
  C28      1.0000 0.68760  0.45788  0.14898  Biso   1.000  C
  C29      1.0000 0.71601  0.46338  0.12359  Biso   1.000  C
  C30      1.0000 0.71096  0.43532  0.09811  Biso   1.000  C
  C31      1.0000 0.53778  0.34907  0.18431  Biso   1.000  C
  C32      1.0000 0.53428  0.37309  0.21381  Biso   1.000  C
  C33      1.0000 0.56437  0.39683  0.20999  Biso   1.000  C
  C34      1.0000 0.64918  0.31283  0.03728  Biso   1.000  C
  C35      1.0000 0.62475  0.28343  0.03343  Biso   1.000  C
  C36      1.0000 0.60033  0.28731  0.06280  Biso   1.000  C
  C37      1.0000 0.70660  0.04210  0.87612  Biso   1.000  C
  C38      1.0000 0.66987  0.03398  0.86681  Biso   1.000  C
  C39      1.0000 0.64318  0.06081  0.86640  Biso   1.000  C
  C40      1.0000 0.65233  0.09683  0.87501  Biso   1.000  C
  C41      1.0000 0.68885  0.10527  0.88412  Biso   1.000  C
  C42      1.0000 0.71545  0.07837  0.88480  Biso   1.000  C
  C43      1.0000 0.73381  0.01469  0.87668  Biso   1.000  C
  C44      1.0000 0.75729  0.99111  0.87714  Biso   1.000  C
  C45      1.0000 0.29375  0.45816  0.37561  Biso   1.000  C
  C46      1.0000 0.28468  0.42197  0.38439  Biso   1.000  C
  C47      1.0000 0.31113  0.39491  0.38381  Biso   1.000  C
  C48      1.0000 0.34771  0.40312  0.37474  Biso   1.000  C
  C49      1.0000 0.35707  0.43907  0.36604  Biso   1.000  C
  C50      1.0000 0.33054  0.46605  0.36634  Biso   1.000  C
  C51      1.0000 0.26671  0.48573  0.37605  Biso   1.000  C
  C52      1.0000 0.24341  0.50949  0.37638  Biso   1.000  C
  C53      1.0000 0.20652  0.95773  0.62413  Biso   1.000  C
  C54      1.0000 0.16979  0.96580  0.63337  Biso   1.000  C
  C55      1.0000 0.14301  0.93892  0.63374  Biso   1.000  C
  C56      1.0000 0.15206  0.90290  0.62518  Biso   1.000  C
  C57      1.0000 0.18856  0.89452  0.61613  Biso   1.000  C
  C58      1.0000 0.21526  0.92147  0.61548  Biso   1.000  C
  C59      1.0000 0.23383  0.98519  0.62360  Biso   1.000  C
  C60      1.0000 0.25741  0.00878  0.62315  Biso   1.000  C
  C61      1.0000 0.79371  0.54182  0.12447  Biso   1.000  C
  C62      1.0000 0.80982  0.55437  0.09190  Biso   1.000  C
  C63      1.0000 0.83654  0.58129  0.09230  Biso   1.000  C
  C64      1.0000 0.84797  0.59688  0.12526  Biso   1.000  C
  C65      1.0000 0.83204  0.58470  0.15782  Biso   1.000  C
  C66      1.0000 0.80552  0.55758  0.15744  Biso   1.000  C
  C67      1.0000 0.76655  0.51433  0.12408  Biso   1.000  C
  C68      1.0000 0.74309  0.49061  0.12376  Biso   1.000  C
  C69      1.0000 0.04343  0.87454  0.70822  Biso   1.000  C
  C70      1.0000 0.03450  0.86566  0.67198  Biso   1.000  C
  C71      1.0000 0.06106  0.86611  0.64493  Biso   1.000  C
  C72      1.0000 0.09764  0.87520  0.65318  Biso   1.000  C
  C73      1.0000 0.10688  0.88398  0.68918  Biso   1.000  C
  C74      1.0000 0.08023  0.88379  0.71616  Biso   1.000  C
  C75      1.0000 0.01625  0.87421  0.73578  Biso   1.000  C
  C76      1.0000 0.99277  0.87392  0.75945  Biso   1.000  C
  C77      1.0000 0.45631  0.37425  0.29207  Biso   1.000  C
  C78      1.0000 0.46512  0.36555  0.32837  Biso   1.000  C
  C79      1.0000 0.43848  0.36616  0.35534  Biso   1.000  C
  C80      1.0000 0.40197  0.37519  0.34693  Biso   1.000  C
  C81      1.0000 0.39287  0.38379  0.31087  Biso   1.000  C
  C82      1.0000 0.41959  0.38346  0.28397  Biso   1.000  C
  C83      1.0000 0.48355  0.37377  0.26459  Biso   1.000  C
  C84      1.0000 0.50706  0.37338  0.24095  Biso   1.000  C
  C85      1.0000 0.95676  0.62578  0.20800  Biso   1.000  C
  C86      1.0000 0.94059  0.65825  0.19552  Biso   1.000  C
  C87      1.0000 0.91377  0.65780  0.16872  Biso   1.000  C
  C88      1.0000 0.90229  0.62487  0.15315  Biso   1.000  C
  C89      1.0000 0.91822  0.59239  0.16532  Biso   1.000  C
  C90      1.0000 0.94483  0.59282  0.19232  Biso   1.000  C
  C91      1.0000 0.98413  0.62622  0.23526  Biso   1.000  C
  C92      1.0000 0.00788  0.62657  0.25869  Biso   1.000  C
  C93      1.0000 0.54394  0.12536  0.79182  Biso   1.000  C
  C94      1.0000 0.53496  0.13405  0.82809  Biso   1.000  C
  C95      1.0000 0.56148  0.13348  0.85518  Biso   1.000  C
  C96      1.0000 0.59804  0.12450  0.84695  Biso   1.000  C
  C97      1.0000 0.60731  0.11586  0.81094  Biso   1.000  C
  C98      1.0000 0.58070  0.11615  0.78391  Biso   1.000  C
  C99      1.0000 0.51682  0.12584  0.76421  Biso   1.000  C
  C100     1.0000 0.49340  0.12624  0.74048  Biso   1.000  C
  C101     1.0000 0.87481  0.70583  0.04410  Biso   1.000  C
  C102     1.0000 0.84167  0.69321  0.05961  Biso   1.000  C
  C103     1.0000 0.84179  0.66672  0.08638  Biso   1.000  C
  C104     1.0000 0.87504  0.65163  0.09846  Biso   1.000  C
  C105     1.0000 0.90817  0.66388  0.08314  Biso   1.000  C
  C106     1.0000 0.90806  0.69056  0.05655  Biso   1.000  C
  C107     1.0000 0.87468  0.73294  0.01693  Biso   1.000  C
  C108     1.0000 0.87453  0.75636  0.99349  Biso   1.000  C
  C109     1.0000 0.37456  0.29428  0.45593  Biso   1.000  C
  C110     1.0000 0.38279  0.28570  0.41948  Biso   1.000  C
  C111     1.0000 0.38269  0.31226  0.39276  Biso   1.000  C
  C112     1.0000 0.37464  0.34844  0.40160  Biso   1.000  C
  C113     1.0000 0.36653  0.35732  0.43782  Biso   1.000  C
  C114     1.0000 0.36634  0.33068  0.46446  Biso   1.000  C
  C115     1.0000 0.37459  0.26715  0.48316  Biso   1.000  C
  C116     1.0000 0.37468  0.24376  0.50661  Biso   1.000  C
  C117     1.0000 0.62484  0.20576  0.95589  Biso   1.000  C
  C118     1.0000 0.63317  0.16941  0.96453  Biso   1.000  C
  C119     1.0000 0.63313  0.14270  0.93796  Biso   1.000  C
  C120     1.0000 0.62505  0.15144  0.90169  Biso   1.000  C
  C121     1.0000 0.61686  0.18757  0.89275  Biso   1.000  C
  C122     1.0000 0.61661  0.21420  0.91940  Biso   1.000  C
  C123     1.0000 0.62477  0.23297  0.98304  Biso   1.000  C
  C124     1.0000 0.62475  0.25641  0.00645  Biso   1.000  C
  C125     1.0000 0.12457  0.79394  0.54421  Biso   1.000  C
  C126     1.0000 0.11627  0.78546  0.58068  Biso   1.000  C
  C127     1.0000 0.11644  0.81209  0.60735  Biso   1.000  C
  C128     1.0000 0.12464  0.84826  0.59845  Biso   1.000  C
  C129     1.0000 0.13275  0.85705  0.56220  Biso   1.000  C
  C130     1.0000 0.13286  0.83035  0.53561  Biso   1.000  C
  C131     1.0000 0.12465  0.76674  0.51702  Biso   1.000  C
  C132     1.0000 0.12484  0.74341  0.49349  Biso   1.000  C
  N1       1.0000 0.37474  0.37558  0.37439  Biso   1.000  N
  N2       1.0000 0.62514  0.12424  0.87455  Biso   1.000  N
  N3       1.0000 0.87511  0.62445  0.12564  Biso   1.000  N
  N4       1.0000 0.12477  0.87545  0.62562  Biso   1.000  N
  N5       1.0000 0.81757  0.91464  0.89235  Biso   1.000  N
  N6       1.0000 0.83402  0.93057  0.86269  Biso   1.000  N
  N7       1.0000 0.91638  0.88893  0.82053  Biso   1.000  N
  N8       1.0000 0.93188  0.85847  0.83570  Biso   1.000  N
  N9       1.0000 0.88999  0.81728  0.91795  Biso   1.000  N
  N10      1.0000 0.85860  0.83187  0.93279  Biso   1.000  N
  N11      1.0000 0.18296  0.58579  0.39185  Biso   1.000  N
  N12      1.0000 0.16740  0.57075  0.36127  Biso   1.000  N
  N13      1.0000 0.08462  0.61181  0.31933  Biso   1.000  N
  N14      1.0000 0.06986  0.64297  0.33381  Biso   1.000  N
  N15      1.0000 0.11105  0.68354  0.41671  Biso   1.000  N
  N16      1.0000 0.14079  0.66749  0.43324  Biso   1.000  N
  N17      1.0000 0.31806  0.08522  0.60777  Biso   1.000  N
  N18      1.0000 0.33453  0.06928  0.63738  Biso   1.000  N
  N19      1.0000 0.41708  0.11126  0.67923  Biso   1.000  N
  N20      1.0000 0.43267  0.14181  0.66418  Biso   1.000  N
  N21      1.0000 0.39012  0.18346  0.58263  Biso   1.000  N
  N22      1.0000 0.35981  0.16757  0.56683  Biso   1.000  N
  N23      1.0000 0.68184  0.41482  0.10771  Biso   1.000  N
  N24      1.0000 0.66733  0.42886  0.13924  Biso   1.000  N
  N25      1.0000 0.58412  0.38757  0.18047  Biso   1.000  N
  N26      1.0000 0.56765  0.35792  0.16456  Biso   1.000  N
  N27      1.0000 0.60959  0.31675  0.08249  Biso   1.000  N
  N28      1.0000 0.63993  0.33256  0.06668  Biso   1.000  N
