data_image0
_cell_length_a       18.6281
_cell_length_b       19.6051
_cell_length_c       19.3923
_cell_angle_alpha    93.1726
_cell_angle_beta     91.0646
_cell_angle_gamma    93.3812

_symmetry_space_group_name_H-M    "P 1"
_symmetry_int_tables_number       1

loop_
  _symmetry_equiv_pos_as_xyz
  'x, y, z'

loop_
  _atom_site_label
  _atom_site_occupancy
  _atom_site_fract_x
  _atom_site_fract_y
  _atom_site_fract_z
  _atom_site_thermal_displace_type
  _atom_site_B_iso_or_equiv
  _atom_site_type_symbol
  Zn1      1.0000 0.58095  0.49994  0.50807  Biso   1.000  Zn
  Zn2      1.0000 0.41886  0.49420  0.50509  Biso   1.000  Zn
  H1       1.0000 0.61151  0.48129  0.34545  Biso   1.000  H
  H2       1.0000 0.38112  0.47394  0.67219  Biso   1.000  H
  H3       1.0000 0.61556  0.52288  0.67434  Biso   1.000  H
  H4       1.0000 0.33353  0.51487  0.24952  Biso   1.000  H
  H5       1.0000 0.72054  0.41327  0.63634  Biso   1.000  H
  H6       1.0000 0.35040  0.37337  0.48260  Biso   1.000  H
  H7       1.0000 0.72937  0.58492  0.38528  Biso   1.000  H
  H8       1.0000 0.36255  0.61197  0.53087  Biso   1.000  H
  H9       1.0000 0.87238  0.44628  0.62999  Biso   1.000  H
  H10      1.0000 0.18929  0.33489  0.46733  Biso   1.000  H
  H11      1.0000 0.87437  0.54216  0.38791  Biso   1.000  H
  H12      1.0000 0.20503  0.64592  0.54330  Biso   1.000  H
  H13      1.0000 0.88915  0.42760  0.38404  Biso   1.000  H
  H14      1.0000 0.04784  0.52340  0.66464  Biso   1.000  H
  H15      1.0000 0.91003  0.55872  0.63355  Biso   1.000  H
  H16      1.0000 0.03110  0.45586  0.34844  Biso   1.000  H
  C1       1.0000 0.50688  0.62972  0.51285  Biso   1.000  C
  C2       1.0000 0.49639  0.36436  0.50588  Biso   1.000  C
  C3       1.0000 0.49534  0.14467  0.51315  Biso   1.000  C
  C4       1.0000 0.50301  0.84976  0.51589  Biso   1.000  C
  C5       1.0000 0.49457  0.28768  0.50828  Biso   1.000  C
  C6       1.0000 0.50630  0.70652  0.51405  Biso   1.000  C
  C7       1.0000 0.56322  0.03810  0.51296  Biso   1.000  C
  C8       1.0000 0.43504  0.95655  0.51987  Biso   1.000  C
  C9       1.0000 0.56512  0.96652  0.51327  Biso   1.000  C
  C10      1.0000 0.43309  0.02810  0.51896  Biso   1.000  C
  C11      1.0000 0.50103  0.92539  0.51663  Biso   1.000  C
  C12      1.0000 0.49716  0.06921  0.51538  Biso   1.000  C
  C13      1.0000 0.72771  0.46544  0.55791  Biso   1.000  C
  C14      1.0000 0.26778  0.43291  0.49055  Biso   1.000  C
  C15      1.0000 0.73152  0.53235  0.46357  Biso   1.000  C
  C16      1.0000 0.27373  0.55015  0.52033  Biso   1.000  C
  C17      1.0000 0.80268  0.46155  0.55893  Biso   1.000  C
  C18      1.0000 0.19231  0.43020  0.48961  Biso   1.000  C
  C19      1.0000 0.80663  0.53129  0.46079  Biso   1.000  C
  C20      1.0000 0.19846  0.55072  0.52018  Biso   1.000  C
  C21      1.0000 0.84438  0.49492  0.50930  Biso   1.000  C
  C22      1.0000 0.15662  0.48989  0.50493  Biso   1.000  C
  C23      1.0000 0.96018  0.47756  0.44691  Biso   1.000  C
  C24      1.0000 0.04172  0.50302  0.56797  Biso   1.000  C
  C25      1.0000 0.96662  0.50485  0.56850  Biso   1.000  C
  C26      1.0000 0.03533  0.47639  0.44510  Biso   1.000  C
  C27      1.0000 0.07724  0.48931  0.50587  Biso   1.000  C
  C28      1.0000 0.92366  0.49229  0.50826  Biso   1.000  C
  C29      1.0000 0.49553  0.49458  0.37225  Biso   1.000  C
  C30      1.0000 0.49769  0.49964  0.64346  Biso   1.000  C
  C31      1.0000 0.56302  0.48816  0.26085  Biso   1.000  C
  C32      1.0000 0.43476  0.48473  0.75545  Biso   1.000  C
  C33      1.0000 0.56594  0.51219  0.75674  Biso   1.000  C
  C34      1.0000 0.43326  0.50363  0.25575  Biso   1.000  C
  C35      1.0000 0.56489  0.48897  0.18819  Biso   1.000  C
  C36      1.0000 0.43752  0.48437  0.82800  Biso   1.000  C
  C37      1.0000 0.56663  0.51157  0.82921  Biso   1.000  C
  C38      1.0000 0.43740  0.50404  0.18341  Biso   1.000  C
  C39      1.0000 0.50229  0.49668  0.14933  Biso   1.000  C
  C40      1.0000 0.50288  0.49783  0.86443  Biso   1.000  C
  C41      1.0000 0.49666  0.49546  0.29567  Biso   1.000  C
  C42      1.0000 0.49947  0.49891  0.71928  Biso   1.000  C
  C43      1.0000 0.50455  0.49764  0.94105  Biso   1.000  C
  C44      1.0000 0.50445  0.49716  0.07282  Biso   1.000  C
  C45      1.0000 0.49502  0.25776  0.57227  Biso   1.000  C
  C46      1.0000 0.49716  0.73875  0.45203  Biso   1.000  C
  C47      1.0000 0.51391  0.74525  0.57694  Biso   1.000  C
  C48      1.0000 0.49400  0.24669  0.44674  Biso   1.000  C
  C49      1.0000 0.49559  0.18621  0.57466  Biso   1.000  C
  C50      1.0000 0.49580  0.81044  0.45297  Biso   1.000  C
  C51      1.0000 0.51210  0.81693  0.57785  Biso   1.000  C
  C52      1.0000 0.49417  0.17514  0.44918  Biso   1.000  C
  N1       1.0000 0.50248  0.55853  0.04493  Biso   1.000  N
  N2       1.0000 0.50875  0.43646  0.96905  Biso   1.000  N
  N3       1.0000 0.50251  0.55879  0.97621  Biso   1.000  N
  N4       1.0000 0.50860  0.43620  0.03773  Biso   1.000  N
  N5       1.0000 0.69242  0.49985  0.51094  Biso   1.000  N
  N6       1.0000 0.30798  0.49200  0.50589  Biso   1.000  N
  Cl1      1.0000 0.64647  0.48165  0.14781  Biso   1.000  Cl
  Cl2      1.0000 0.35881  0.46762  0.87197  Biso   1.000  Cl
  Cl3      1.0000 0.64756  0.52743  0.87455  Biso   1.000  Cl
  Cl4      1.0000 0.35792  0.51253  0.13636  Biso   1.000  Cl
  Cl5      1.0000 0.49457  0.30955  0.64727  Biso   1.000  Cl
  Cl6      1.0000 0.48702  0.68935  0.37556  Biso   1.000  Cl
  Cl7      1.0000 0.52531  0.70385  0.65237  Biso   1.000  Cl
  Cl8      1.0000 0.49414  0.28523  0.36875  Biso   1.000  Cl
  Cl9      1.0000 0.49702  0.14857  0.65291  Biso   1.000  Cl
  Cl10     1.0000 0.48507  0.85097  0.37707  Biso   1.000  Cl
  Cl11     1.0000 0.52079  0.86539  0.65483  Biso   1.000  Cl
  Cl12     1.0000 0.49341  0.12397  0.37387  Biso   1.000  Cl
  Cl13     1.0000 0.64184  0.08875  0.50918  Biso   1.000  Cl
  Cl14     1.0000 0.35652  0.90591  0.52457  Biso   1.000  Cl
  Cl15     1.0000 0.64600  0.92808  0.50919  Biso   1.000  Cl
  Cl16     1.0000 0.35214  0.06648  0.52189  Biso   1.000  Cl
  O1       1.0000 0.56575  0.60325  0.50236  Biso   1.000  O
  O2       1.0000 0.43622  0.39079  0.49505  Biso   1.000  O
  O3       1.0000 0.55673  0.39599  0.51497  Biso   1.000  O
  O4       1.0000 0.44623  0.59780  0.52266  Biso   1.000  O
  O5       1.0000 0.55598  0.48443  0.40352  Biso   1.000  O
  O6       1.0000 0.43722  0.48597  0.61089  Biso   1.000  O
  O7       1.0000 0.55666  0.51392  0.61237  Biso   1.000  O
  O8       1.0000 0.43759  0.50358  0.40354  Biso   1.000  O
  O9       1.0000 0.62510  0.48073  0.29490  Biso   1.000  O
  O10      1.0000 0.37083  0.47168  0.72277  Biso   1.000  O
  O11      1.0000 0.62849  0.52518  0.72510  Biso   1.000  O
  O12      1.0000 0.36929  0.51070  0.28665  Biso   1.000  O
  O13      1.0000 0.68724  0.43380  0.60487  Biso   1.000  O
  O14      1.0000 0.29695  0.37249  0.47515  Biso   1.000  O
  O15      1.0000 0.69450  0.56696  0.41799  Biso   1.000  O
  O16      1.0000 0.30898  0.61143  0.53618  Biso   1.000  O
  O17      1.0000 0.82889  0.42172  0.60872  Biso   1.000  O
  O18      1.0000 0.15395  0.36930  0.47527  Biso   1.000  O
  O19      1.0000 0.83767  0.56950  0.41062  Biso   1.000  O
  O20      1.0000 0.16617  0.61071  0.53379  Biso   1.000  O
  O21      1.0000 0.92407  0.46655  0.38229  Biso   1.000  O
  O22      1.0000 0.08132  0.51410  0.62755  Biso   1.000  O
  O23      1.0000 0.93691  0.51750  0.63407  Biso   1.000  O
  O24      1.0000 0.06871  0.46383  0.38428  Biso   1.000  O
