data_image0
_cell_length_a       12.8513
_cell_length_b       13.1715
_cell_length_c       22.3924
_cell_angle_alpha    93.1292
_cell_angle_beta     94.7331
_cell_angle_gamma    120.709

_symmetry_space_group_name_H-M    "P 1"
_symmetry_int_tables_number       1

loop_
  _symmetry_equiv_pos_as_xyz
  'x, y, z'

loop_
  _atom_site_label
  _atom_site_occupancy
  _atom_site_fract_x
  _atom_site_fract_y
  _atom_site_fract_z
  _atom_site_thermal_displace_type
  _atom_site_B_iso_or_equiv
  _atom_site_type_symbol
  Zn1      1.0000 0.87005  0.74483  0.29720  Biso   1.000  Zn
  Zn2      1.0000 0.85010  0.70236  0.16919  Biso   1.000  Zn
  Zn3      1.0000 0.12995  0.25517  0.70280  Biso   1.000  Zn
  Zn4      1.0000 0.14990  0.29764  0.83081  Biso   1.000  Zn
  H1       1.0000 0.69648  0.58968  0.37424  Biso   1.000  H
  H2       1.0000 0.67699  0.57284  0.48492  Biso   1.000  H
  H3       1.0000 0.02231  0.90391  0.52252  Biso   1.000  H
  H4       1.0000 0.02881  0.90696  0.41127  Biso   1.000  H
  H5       1.0000 0.83025  0.97587  0.68900  Biso   1.000  H
  H6       1.0000 0.83670  0.97300  0.80095  Biso   1.000  H
  H7       1.0000 0.87834  0.48257  0.77724  Biso   1.000  H
  H8       1.0000 0.86339  0.48012  0.66468  Biso   1.000  H
  H9       1.0000 0.23149  0.80938  0.34703  Biso   1.000  H
  H10      1.0000 0.40451  0.77305  0.35654  Biso   1.000  H
  H11      1.0000 0.53853  0.71601  0.30789  Biso   1.000  H
  H12      1.0000 0.48794  0.63527  0.11610  Biso   1.000  H
  H13      1.0000 0.31583  0.67411  0.10630  Biso   1.000  H
  H14      1.0000 0.18315  0.73243  0.15472  Biso   1.000  H
  H15      1.0000 0.85970  0.06895  0.31560  Biso   1.000  H
  H16      1.0000 0.84253  0.23835  0.35899  Biso   1.000  H
  H17      1.0000 0.83356  0.42021  0.34432  Biso   1.000  H
  H18      1.0000 0.83244  0.36478  0.15368  Biso   1.000  H
  H19      1.0000 0.83900  0.19032  0.10994  Biso   1.000  H
  H20      1.0000 0.85706  0.01272  0.12519  Biso   1.000  H
  H21      1.0000 0.70619  0.53512  0.05745  Biso   1.000  H
  H22      1.0000 0.70343  0.53996  0.94504  Biso   1.000  H
  H23      1.0000 0.01741  0.89618  0.98030  Biso   1.000  H
  H24      1.0000 0.00745  0.87748  0.09051  Biso   1.000  H
  H25      1.0000 0.30352  0.41032  0.62576  Biso   1.000  H
  H26      1.0000 0.32301  0.42716  0.51508  Biso   1.000  H
  H27      1.0000 0.97769  0.09609  0.47748  Biso   1.000  H
  H28      1.0000 0.97119  0.09304  0.58873  Biso   1.000  H
  H29      1.0000 0.16975  0.02413  0.31100  Biso   1.000  H
  H30      1.0000 0.16330  0.02700  0.19905  Biso   1.000  H
  H31      1.0000 0.12166  0.51743  0.22276  Biso   1.000  H
  H32      1.0000 0.13661  0.51988  0.33532  Biso   1.000  H
  H33      1.0000 0.76851  0.19062  0.65297  Biso   1.000  H
  H34      1.0000 0.59549  0.22695  0.64346  Biso   1.000  H
  H35      1.0000 0.46147  0.28399  0.69211  Biso   1.000  H
  H36      1.0000 0.51206  0.36473  0.88390  Biso   1.000  H
  H37      1.0000 0.68417  0.32589  0.89370  Biso   1.000  H
  H38      1.0000 0.81685  0.26757  0.84528  Biso   1.000  H
  H39      1.0000 0.14030  0.93105  0.68440  Biso   1.000  H
  H40      1.0000 0.15747  0.76165  0.64101  Biso   1.000  H
  H41      1.0000 0.16644  0.57979  0.65568  Biso   1.000  H
  H42      1.0000 0.16756  0.63522  0.84632  Biso   1.000  H
  H43      1.0000 0.16100  0.80968  0.89006  Biso   1.000  H
  H44      1.0000 0.14294  0.98728  0.87481  Biso   1.000  H
  H45      1.0000 0.29381  0.46488  0.94255  Biso   1.000  H
  H46      1.0000 0.29657  0.46004  0.05496  Biso   1.000  H
  H47      1.0000 0.98259  0.10382  0.01970  Biso   1.000  H
  H48      1.0000 0.99255  0.12252  0.90949  Biso   1.000  H
  C1       1.0000 0.87522  0.92828  0.22992  Biso   1.000  C
  C2       1.0000 0.08907  0.78684  0.24494  Biso   1.000  C
  C3       1.0000 0.83318  0.51491  0.24042  Biso   1.000  C
  C4       1.0000 0.63057  0.65848  0.21815  Biso   1.000  C
  C5       1.0000 0.76589  0.65667  0.40895  Biso   1.000  C
  C6       1.0000 0.75537  0.64812  0.47005  Biso   1.000  C
  C7       1.0000 0.84844  0.73774  0.51168  Biso   1.000  C
  C8       1.0000 0.94840  0.83280  0.49117  Biso   1.000  C
  C9       1.0000 0.95226  0.83473  0.42926  Biso   1.000  C
  C10      1.0000 0.83601  0.82233  0.60867  Biso   1.000  C
  C11      1.0000 0.83504  0.81601  0.67416  Biso   1.000  C
  C12      1.0000 0.83199  0.90405  0.70993  Biso   1.000  C
  C13      1.0000 0.83608  0.90277  0.77271  Biso   1.000  C
  C14      1.0000 0.84417  0.81402  0.79982  Biso   1.000  C
  C15      1.0000 0.85269  0.81741  0.86622  Biso   1.000  C
  C16      1.0000 0.87254  0.63580  0.85712  Biso   1.000  C
  C17      1.0000 0.86046  0.63485  0.79104  Biso   1.000  C
  C18      1.0000 0.86641  0.54833  0.75550  Biso   1.000  C
  C19      1.0000 0.85851  0.54731  0.69265  Biso   1.000  C
  C20      1.0000 0.84678  0.63400  0.66529  Biso   1.000  C
  C21      1.0000 0.84435  0.63388  0.59934  Biso   1.000  C
  C22      1.0000 0.84176  0.72374  0.70055  Biso   1.000  C
  C23      1.0000 0.84705  0.72318  0.76438  Biso   1.000  C
  C24      1.0000 0.19878  0.77415  0.24988  Biso   1.000  C
  C25      1.0000 0.26163  0.78564  0.30748  Biso   1.000  C
  C26      1.0000 0.35668  0.76500  0.31247  Biso   1.000  C
  C27      1.0000 0.39297  0.73078  0.26043  Biso   1.000  C
  C28      1.0000 0.48826  0.70618  0.26431  Biso   1.000  C
  C29      1.0000 0.52126  0.67202  0.21301  Biso   1.000  C
  C30      1.0000 0.45824  0.66036  0.15544  Biso   1.000  C
  C31      1.0000 0.36492  0.68346  0.15019  Biso   1.000  C
  C32      1.0000 0.33017  0.71988  0.20213  Biso   1.000  C
  C33      1.0000 0.23362  0.74278  0.19833  Biso   1.000  C
  C34      1.0000 0.86133  0.03282  0.22172  Biso   1.000  C
  C35      1.0000 0.85493  0.09661  0.27105  Biso   1.000  C
  C36      1.0000 0.84323  0.19661  0.26410  Biso   1.000  C
  C37      1.0000 0.83941  0.26536  0.31412  Biso   1.000  C
  C38      1.0000 0.83407  0.36566  0.30626  Biso   1.000  C
  C39      1.0000 0.83149  0.40165  0.24774  Biso   1.000  C
  C40      1.0000 0.83292  0.33510  0.19804  Biso   1.000  C
  C41      1.0000 0.83859  0.23180  0.20479  Biso   1.000  C
  C42      1.0000 0.84316  0.16343  0.15476  Biso   1.000  C
  C43      1.0000 0.85375  0.06608  0.16294  Biso   1.000  C
  C44      1.0000 0.77335  0.61269  0.03812  Biso   1.000  C
  C45      1.0000 0.77198  0.61573  0.97613  Biso   1.000  C
  C46      1.0000 0.86047  0.71865  0.95453  Biso   1.000  C
  C47      1.0000 0.94737  0.81472  0.99543  Biso   1.000  C
  C48      1.0000 0.94228  0.80460  0.05686  Biso   1.000  C
  C49      1.0000 0.12478  0.07172  0.77008  Biso   1.000  C
  C50      1.0000 0.91093  0.21316  0.75506  Biso   1.000  C
  C51      1.0000 0.16682  0.48509  0.75958  Biso   1.000  C
  C52      1.0000 0.36943  0.34152  0.78185  Biso   1.000  C
  C53      1.0000 0.23411  0.34333  0.59105  Biso   1.000  C
  C54      1.0000 0.24463  0.35188  0.52995  Biso   1.000  C
  C55      1.0000 0.15156  0.26226  0.48832  Biso   1.000  C
  C56      1.0000 0.05160  0.16720  0.50883  Biso   1.000  C
  C57      1.0000 0.04774  0.16527  0.57074  Biso   1.000  C
  C58      1.0000 0.16399  0.17767  0.39133  Biso   1.000  C
  C59      1.0000 0.16496  0.18399  0.32584  Biso   1.000  C
  C60      1.0000 0.16801  0.09595  0.29007  Biso   1.000  C
  C61      1.0000 0.16392  0.09723  0.22729  Biso   1.000  C
  C62      1.0000 0.15583  0.18599  0.20018  Biso   1.000  C
  C63      1.0000 0.14731  0.18259  0.13378  Biso   1.000  C
  C64      1.0000 0.12746  0.36420  0.14288  Biso   1.000  C
  C65      1.0000 0.13954  0.36515  0.20896  Biso   1.000  C
  C66      1.0000 0.13359  0.45167  0.24450  Biso   1.000  C
  C67      1.0000 0.14149  0.45269  0.30735  Biso   1.000  C
  C68      1.0000 0.15322  0.36600  0.33471  Biso   1.000  C
  C69      1.0000 0.15565  0.36612  0.40066  Biso   1.000  C
  C70      1.0000 0.15824  0.27626  0.29945  Biso   1.000  C
  C71      1.0000 0.15295  0.27682  0.23562  Biso   1.000  C
  C72      1.0000 0.80122  0.22585  0.75012  Biso   1.000  C
  C73      1.0000 0.73837  0.21436  0.69252  Biso   1.000  C
  C74      1.0000 0.64332  0.23500  0.68753  Biso   1.000  C
  C75      1.0000 0.60703  0.26922  0.73957  Biso   1.000  C
  C76      1.0000 0.51174  0.29382  0.73569  Biso   1.000  C
  C77      1.0000 0.47874  0.32798  0.78699  Biso   1.000  C
  C78      1.0000 0.54176  0.33964  0.84456  Biso   1.000  C
  C79      1.0000 0.63508  0.31654  0.84981  Biso   1.000  C
  C80      1.0000 0.66983  0.28012  0.79787  Biso   1.000  C
  C81      1.0000 0.76638  0.25722  0.80167  Biso   1.000  C
  C82      1.0000 0.13867  0.96718  0.77828  Biso   1.000  C
  C83      1.0000 0.14507  0.90339  0.72895  Biso   1.000  C
  C84      1.0000 0.15677  0.80339  0.73590  Biso   1.000  C
  C85      1.0000 0.16059  0.73464  0.68588  Biso   1.000  C
  C86      1.0000 0.16593  0.63434  0.69374  Biso   1.000  C
  C87      1.0000 0.16851  0.59835  0.75226  Biso   1.000  C
  C88      1.0000 0.16708  0.66490  0.80196  Biso   1.000  C
  C89      1.0000 0.16141  0.76820  0.79521  Biso   1.000  C
  C90      1.0000 0.15684  0.83657  0.84524  Biso   1.000  C
  C91      1.0000 0.14625  0.93392  0.83706  Biso   1.000  C
  C92      1.0000 0.22665  0.38731  0.96188  Biso   1.000  C
  C93      1.0000 0.22802  0.38427  0.02387  Biso   1.000  C
  C94      1.0000 0.13953  0.28135  0.04547  Biso   1.000  C
  C95      1.0000 0.05263  0.18528  0.00457  Biso   1.000  C
  C96      1.0000 0.05772  0.19540  0.94314  Biso   1.000  C
  N1       1.0000 0.86257  0.74817  0.38894  Biso   1.000  N
  N2       1.0000 0.84257  0.73135  0.57530  Biso   1.000  N
  N3       1.0000 0.85965  0.72340  0.89064  Biso   1.000  N
  N4       1.0000 0.85682  0.70542  0.07781  Biso   1.000  N
  N5       1.0000 0.13743  0.25183  0.61106  Biso   1.000  N
  N6       1.0000 0.15743  0.26865  0.42470  Biso   1.000  N
  N7       1.0000 0.14035  0.27660  0.10936  Biso   1.000  N
  N8       1.0000 0.14318  0.29458  0.92219  Biso   1.000  N
  O1       1.0000 0.88788  0.90518  0.28378  Biso   1.000  O
  O2       1.0000 0.87279  0.86994  0.18201  Biso   1.000  O
  O3       1.0000 0.05366  0.80462  0.29414  Biso   1.000  O
  O4       1.0000 0.03694  0.77586  0.19200  Biso   1.000  O
  O5       1.0000 0.84289  0.57623  0.28888  Biso   1.000  O
  O6       1.0000 0.82829  0.54250  0.18693  Biso   1.000  O
  O7       1.0000 0.68380  0.67213  0.27122  Biso   1.000  O
  O8       1.0000 0.66544  0.63981  0.16911  Biso   1.000  O
  O9       1.0000 0.83149  0.90032  0.58278  Biso   1.000  O
  O10      1.0000 0.85298  0.89522  0.89930  Biso   1.000  O
  O11      1.0000 0.89310  0.56732  0.88334  Biso   1.000  O
  O12      1.0000 0.84585  0.55792  0.56580  Biso   1.000  O
  O13      1.0000 0.11212  0.09482  0.71622  Biso   1.000  O
  O14      1.0000 0.12721  0.13006  0.81799  Biso   1.000  O
  O15      1.0000 0.94634  0.19538  0.70586  Biso   1.000  O
  O16      1.0000 0.96306  0.22414  0.80800  Biso   1.000  O
  O17      1.0000 0.15711  0.42377  0.71112  Biso   1.000  O
  O18      1.0000 0.17171  0.45750  0.81307  Biso   1.000  O
  O19      1.0000 0.31620  0.32787  0.72878  Biso   1.000  O
  O20      1.0000 0.33456  0.36019  0.83089  Biso   1.000  O
  O21      1.0000 0.16851  0.09968  0.41722  Biso   1.000  O
  O22      1.0000 0.14702  0.10478  0.10070  Biso   1.000  O
  O23      1.0000 0.10690  0.43268  0.11666  Biso   1.000  O
  O24      1.0000 0.15415  0.44208  0.43420  Biso   1.000  O
