data_image0
_cell_length_a       6.69521
_cell_length_b       11.1611
_cell_length_c       17.8471
_cell_angle_alpha    81.5757
_cell_angle_beta     78.1684
_cell_angle_gamma    71.7624

_symmetry_space_group_name_H-M    "P 1"
_symmetry_int_tables_number       1

loop_
  _symmetry_equiv_pos_as_xyz
  'x, y, z'

loop_
  _atom_site_label
  _atom_site_occupancy
  _atom_site_fract_x
  _atom_site_fract_y
  _atom_site_fract_z
  _atom_site_thermal_displace_type
  _atom_site_B_iso_or_equiv
  _atom_site_type_symbol
  Al1      1.0000 0.49000  0.49464  0.50077  Biso   1.000  Al
  Al2      1.0000 0.98927  0.49540  0.50052  Biso   1.000  Al
  H1       1.0000 0.29244  0.34260  0.54483  Biso   1.000  H
  H2       1.0000 0.68325  0.64893  0.46131  Biso   1.000  H
  H3       1.0000 0.66265  0.52843  0.26737  Biso   1.000  H
  H4       1.0000 0.75254  0.51986  0.12545  Biso   1.000  H
  H5       1.0000 0.05201  0.47887  0.26843  Biso   1.000  H
  H6       1.0000 0.92674  0.51043  0.73272  Biso   1.000  H
  H7       1.0000 0.30485  0.47984  0.73168  Biso   1.000  H
  H8       1.0000 0.21286  0.48913  0.87358  Biso   1.000  H
  H9       1.0000 0.23786  0.23550  0.39895  Biso   1.000  H
  H10      1.0000 0.44714  0.76914  0.39770  Biso   1.000  H
  H11      1.0000 0.75380  0.87427  0.55462  Biso   1.000  H
  H12      1.0000 0.63804  0.11063  0.54935  Biso   1.000  H
  H13      1.0000 0.14964  0.48778  0.06418  Biso   1.000  H
  H14      1.0000 0.82236  0.50793  0.93670  Biso   1.000  H
  H15      1.0000 0.77999  0.11189  0.32495  Biso   1.000  H
  H16      1.0000 0.55492  0.24678  0.31846  Biso   1.000  H
  H17      1.0000 0.63891  0.13613  0.24793  Biso   1.000  H
  H18      1.0000 0.74926  0.90014  0.24762  Biso   1.000  H
  H19      1.0000 0.76544  0.76497  0.31545  Biso   1.000  H
  H20      1.0000 0.88115  0.88313  0.32635  Biso   1.000  H
  C1       1.0000 0.85802  0.26916  0.49084  Biso   1.000  C
  C2       1.0000 0.67221  0.49141  0.63910  Biso   1.000  C
  C3       1.0000 0.12933  0.72242  0.49913  Biso   1.000  C
  C4       1.0000 0.30460  0.50262  0.36122  Biso   1.000  C
  C5       1.0000 0.35331  0.50383  0.27574  Biso   1.000  C
  C6       1.0000 0.54958  0.51707  0.23542  Biso   1.000  C
  C7       1.0000 0.59640  0.51431  0.15613  Biso   1.000  C
  C8       1.0000 0.44421  0.50383  0.11515  Biso   1.000  C
  C9       1.0000 0.24340  0.49470  0.15683  Biso   1.000  C
  C10      1.0000 0.20130  0.49110  0.23651  Biso   1.000  C
  C11      1.0000 0.48018  0.50252  0.03455  Biso   1.000  C
  C12      1.0000 0.48791  0.50033  0.96536  Biso   1.000  C
  C13      1.0000 0.52482  0.49850  0.88478  Biso   1.000  C
  C14      1.0000 0.72852  0.50318  0.84367  Biso   1.000  C
  C15      1.0000 0.77355  0.50391  0.76412  Biso   1.000  C
  C16      1.0000 0.61986  0.49489  0.72440  Biso   1.000  C
  C17      1.0000 0.41938  0.48787  0.76411  Biso   1.000  C
  C18      1.0000 0.37107  0.49155  0.84334  Biso   1.000  C
  C19      1.0000 0.93531  0.12959  0.48501  Biso   1.000  C
  C20      1.0000 0.14306  0.06709  0.44525  Biso   1.000  C
  C21      1.0000 0.79643  0.06064  0.52128  Biso   1.000  C
  C22      1.0000 0.28402  0.13299  0.40012  Biso   1.000  C
  C23      1.0000 0.47631  0.07156  0.35667  Biso   1.000  C
  C24      1.0000 0.06419  0.86349  0.48940  Biso   1.000  C
  C25      1.0000 0.86101  0.92785  0.52410  Biso   1.000  C
  C26      1.0000 0.20687  0.93129  0.44648  Biso   1.000  C
  C27      1.0000 0.40329  0.87090  0.40047  Biso   1.000  C
  C28      1.0000 0.53684  0.93705  0.35638  Biso   1.000  C
  C29      1.0000 0.61929  0.14579  0.30971  Biso   1.000  C
  C30      1.0000 0.74336  0.86739  0.30902  Biso   1.000  C
  O1       1.0000 0.66232  0.32408  0.48558  Biso   1.000  O
  O2       1.0000 0.85325  0.50504  0.60643  Biso   1.000  O
  O3       1.0000 0.99128  0.66864  0.49328  Biso   1.000  O
  O4       1.0000 0.44394  0.52029  0.39426  Biso   1.000  O
  O5       1.0000 0.31732  0.66601  0.51288  Biso   1.000  O
  O6       1.0000 0.12631  0.48501  0.39397  Biso   1.000  O
  O7       1.0000 0.98938  0.32265  0.50340  Biso   1.000  O
  O8       1.0000 0.53303  0.47317  0.60624  Biso   1.000  O
  O9       1.0000 0.25362  0.43381  0.53311  Biso   1.000  O
  O10      1.0000 0.72530  0.55684  0.46757  Biso   1.000  O
  O11      1.0000 0.08807  0.48874  0.11900  Biso   1.000  O
  O12      1.0000 0.88456  0.50685  0.88194  Biso   1.000  O
