data_image0
_cell_length_a       9.20333
_cell_length_b       18.3013
_cell_length_c       18.7962
_cell_angle_alpha    90.6893
_cell_angle_beta     92.5705
_cell_angle_gamma    91.3783

_symmetry_space_group_name_H-M    "P 1"
_symmetry_int_tables_number       1

loop_
  _symmetry_equiv_pos_as_xyz
  'x, y, z'

loop_
  _atom_site_label
  _atom_site_occupancy
  _atom_site_fract_x
  _atom_site_fract_y
  _atom_site_fract_z
  _atom_site_thermal_displace_type
  _atom_site_B_iso_or_equiv
  _atom_site_type_symbol
  Zn1      1.0000 0.39394  0.00006  0.49041  Biso   1.000  Zn
  Zn2      1.0000 0.67600  0.99352  0.50599  Biso   1.000  Zn
  Zn3      1.0000 0.60614  0.49662  0.00079  Biso   1.000  Zn
  Zn4      1.0000 0.32364  0.50028  0.98745  Biso   1.000  Zn
  H1       1.0000 0.82870  0.90280  0.35367  Biso   1.000  H
  H2       1.0000 0.82239  0.91718  0.26699  Biso   1.000  H
  H3       1.0000 0.78947  0.79210  0.15089  Biso   1.000  H
  H4       1.0000 0.88767  0.80737  0.22572  Biso   1.000  H
  H5       1.0000 0.66399  0.61034  0.12053  Biso   1.000  H
  H6       1.0000 0.76427  0.67758  0.17541  Biso   1.000  H
  H7       1.0000 0.13855  0.62366  0.11022  Biso   1.000  H
  H8       1.0000 0.05842  0.68892  0.16108  Biso   1.000  H
  H9       1.0000 0.11341  0.78905  0.26350  Biso   1.000  H
  H10      1.0000 0.07646  0.69998  0.26809  Biso   1.000  H
  H11      1.0000 0.33626  0.83761  0.41590  Biso   1.000  H
  H12      1.0000 0.24005  0.77088  0.36142  Biso   1.000  H
  H13      1.0000 0.86158  0.12429  0.63251  Biso   1.000  H
  H14      1.0000 0.94722  0.18222  0.69541  Biso   1.000  H
  H15      1.0000 0.90209  0.27410  0.79483  Biso   1.000  H
  H16      1.0000 0.91451  0.29174  0.70893  Biso   1.000  H
  H17      1.0000 0.66426  0.42316  0.84530  Biso   1.000  H
  H18      1.0000 0.76201  0.36982  0.78373  Biso   1.000  H
  H19      1.0000 0.17155  0.34220  0.89024  Biso   1.000  H
  H20      1.0000 0.18272  0.25453  0.90733  Biso   1.000  H
  H21      1.0000 0.21238  0.13453  0.78311  Biso   1.000  H
  H22      1.0000 0.11543  0.20755  0.79890  Biso   1.000  H
  H23      1.0000 0.33685  0.10866  0.61135  Biso   1.000  H
  H24      1.0000 0.23609  0.15912  0.67531  Biso   1.000  H
  H25      1.0000 0.76805  0.13693  0.42735  Biso   1.000  H
  H26      1.0000 0.85788  0.21561  0.40661  Biso   1.000  H
  H27      1.0000 0.87007  0.31470  0.31413  Biso   1.000  H
  H28      1.0000 0.91467  0.22912  0.29880  Biso   1.000  H
  H29      1.0000 0.74915  0.35963  0.12391  Biso   1.000  H
  H30      1.0000 0.81553  0.30072  0.19305  Biso   1.000  H
  H31      1.0000 0.24451  0.42693  0.12795  Biso   1.000  H
  H32      1.0000 0.16824  0.41243  0.20710  Biso   1.000  H
  H33      1.0000 0.15473  0.31730  0.30799  Biso   1.000  H
  H34      1.0000 0.09678  0.30191  0.22450  Biso   1.000  H
  H35      1.0000 0.25650  0.12444  0.35578  Biso   1.000  H
  H36      1.0000 0.19155  0.19361  0.29609  Biso   1.000  H
  H37      1.0000 0.19807  0.90823  0.62522  Biso   1.000  H
  H38      1.0000 0.11726  0.88510  0.70214  Biso   1.000  H
  H39      1.0000 0.13284  0.80030  0.80487  Biso   1.000  H
  H40      1.0000 0.08098  0.77525  0.72258  Biso   1.000  H
  H41      1.0000 0.28090  0.61531  0.86290  Biso   1.000  H
  H42      1.0000 0.19771  0.68039  0.80251  Biso   1.000  H
  H43      1.0000 0.79862  0.63748  0.91109  Biso   1.000  H
  H44      1.0000 0.88624  0.71411  0.88186  Biso   1.000  H
  H45      1.0000 0.87083  0.81246  0.79138  Biso   1.000  H
  H46      1.0000 0.90869  0.72629  0.77398  Biso   1.000  H
  H47      1.0000 0.70553  0.85480  0.60701  Biso   1.000  H
  H48      1.0000 0.78812  0.79774  0.67449  Biso   1.000  H
  C1       1.0000 0.45567  0.90207  0.59437  Biso   1.000  C
  C2       1.0000 0.58167  0.89616  0.40286  Biso   1.000  C
  C3       1.0000 0.50685  0.10094  0.40373  Biso   1.000  C
  C4       1.0000 0.60090  0.09569  0.59976  Biso   1.000  C
  C5       1.0000 0.49953  0.40249  0.09546  Biso   1.000  C
  C6       1.0000 0.39874  0.59482  0.09357  Biso   1.000  C
  C7       1.0000 0.53683  0.60301  0.90599  Biso   1.000  C
  C8       1.0000 0.41807  0.40156  0.89252  Biso   1.000  C
  C9       1.0000 0.54330  0.67864  0.17791  Biso   1.000  C
  C10      1.0000 0.27592  0.67622  0.18237  Biso   1.000  C
  C11      1.0000 0.28662  0.72303  0.24185  Biso   1.000  C
  C12      1.0000 0.42430  0.75394  0.26699  Biso   1.000  C
  C13      1.0000 0.44210  0.79973  0.33079  Biso   1.000  C
  C14      1.0000 0.69129  0.83360  0.29794  Biso   1.000  C
  C15      1.0000 0.68207  0.78149  0.24349  Biso   1.000  C
  C16      1.0000 0.55113  0.73890  0.22880  Biso   1.000  C
  C17      1.0000 0.40506  0.64942  0.15126  Biso   1.000  C
  C18      1.0000 0.57316  0.84208  0.34430  Biso   1.000  C
  C19      1.0000 0.55923  0.33224  0.80418  Biso   1.000  C
  C20      1.0000 0.30982  0.28954  0.82835  Biso   1.000  C
  C21      1.0000 0.31928  0.23392  0.77818  Biso   1.000  C
  C22      1.0000 0.45030  0.22373  0.74064  Biso   1.000  C
  C23      1.0000 0.45756  0.17172  0.68227  Biso   1.000  C
  C24      1.0000 0.72446  0.18959  0.68437  Biso   1.000  C
  C25      1.0000 0.71419  0.24880  0.73165  Biso   1.000  C
  C26      1.0000 0.57697  0.26792  0.75908  Biso   1.000  C
  C27      1.0000 0.42771  0.34147  0.84073  Biso   1.000  C
  C28      1.0000 0.59507  0.15210  0.65541  Biso   1.000  C
  C29      1.0000 0.59943  0.31853  0.18994  Biso   1.000  C
  C30      1.0000 0.33911  0.34791  0.18736  Biso   1.000  C
  C31      1.0000 0.31592  0.29574  0.23927  Biso   1.000  C
  C32      1.0000 0.43253  0.25433  0.26931  Biso   1.000  C
  C33      1.0000 0.40933  0.19259  0.31581  Biso   1.000  C
  C34      1.0000 0.67263  0.19294  0.34654  Biso   1.000  C
  C35      1.0000 0.69607  0.24402  0.29357  Biso   1.000  C
  C36      1.0000 0.57820  0.27277  0.25155  Biso   1.000  C
  C37      1.0000 0.48038  0.35612  0.15747  Biso   1.000  C
  C38      1.0000 0.52871  0.16183  0.35517  Biso   1.000  C
  C39      1.0000 0.41775  0.68703  0.81687  Biso   1.000  C
  C40      1.0000 0.68466  0.69264  0.83529  Biso   1.000  C
  C41      1.0000 0.69296  0.74262  0.78021  Biso   1.000  C
  C42      1.0000 0.56550  0.76881  0.74332  Biso   1.000  C
  C43      1.0000 0.57183  0.81432  0.68048  Biso   1.000  C
  C44      1.0000 0.30883  0.83495  0.68511  Biso   1.000  C
  C45      1.0000 0.29978  0.78273  0.73824  Biso   1.000  C
  C46      1.0000 0.42584  0.74713  0.76694  Biso   1.000  C
  C47      1.0000 0.54677  0.66051  0.85278  Biso   1.000  C
  C48      1.0000 0.44468  0.85015  0.65267  Biso   1.000  C
  N1       1.0000 0.82222  0.87742  0.30475  Biso   1.000  N
  N2       1.0000 0.80881  0.77376  0.20156  Biso   1.000  N
  N3       1.0000 0.67058  0.65017  0.15879  Biso   1.000  N
  N4       1.0000 0.13797  0.65165  0.15749  Biso   1.000  N
  N5       1.0000 0.15522  0.73962  0.27675  Biso   1.000  N
  N6       1.0000 0.33524  0.79723  0.37844  Biso   1.000  N
  N7       1.0000 0.86045  0.17200  0.66103  Biso   1.000  N
  N8       1.0000 0.84568  0.29064  0.75000  Biso   1.000  N
  N9       1.0000 0.66706  0.38423  0.80657  Biso   1.000  N
  N10      1.0000 0.17860  0.29156  0.86694  Biso   1.000  N
  N11      1.0000 0.19210  0.18657  0.76682  Biso   1.000  N
  N12      1.0000 0.33031  0.14351  0.65355  Biso   1.000  N
  N13      1.0000 0.79458  0.17245  0.38843  Biso   1.000  N
  N14      1.0000 0.84390  0.26898  0.28390  Biso   1.000  N
  N15      1.0000 0.73256  0.32098  0.16138  Biso   1.000  N
  N16      1.0000 0.21936  0.38979  0.16563  Biso   1.000  N
  N17      1.0000 0.17009  0.28613  0.26352  Biso   1.000  N
  N18      1.0000 0.27320  0.16246  0.31772  Biso   1.000  N
  N19      1.0000 0.18052  0.86894  0.66223  Biso   1.000  N
  N20      1.0000 0.15625  0.76663  0.76321  Biso   1.000  N
  N21      1.0000 0.28578  0.65546  0.82612  Biso   1.000  N
  N22      1.0000 0.81514  0.67202  0.86979  Biso   1.000  N
  N23      1.0000 0.83727  0.76696  0.76231  Biso   1.000  N
  N24      1.0000 0.69945  0.81890  0.64765  Biso   1.000  N
  O1       1.0000 0.33859  0.93148  0.56538  Biso   1.000  O
  O2       1.0000 0.58195  0.91904  0.57157  Biso   1.000  O
  O3       1.0000 0.70724  0.91892  0.43111  Biso   1.000  O
  O4       1.0000 0.46170  0.92076  0.42507  Biso   1.000  O
  O5       1.0000 0.61945  0.06955  0.43115  Biso   1.000  O
  O6       1.0000 0.37591  0.07793  0.41929  Biso   1.000  O
  O7       1.0000 0.48135  0.07186  0.56840  Biso   1.000  O
  O8       1.0000 0.72469  0.06836  0.58117  Biso   1.000  O
  O9       1.0000 0.62928  0.42293  0.07574  Biso   1.000  O
  O10      1.0000 0.38509  0.42273  0.05990  Biso   1.000  O
  O11      1.0000 0.27465  0.57196  0.06258  Biso   1.000  O
  O12      1.0000 0.51833  0.56873  0.07222  Biso   1.000  O
  O13      1.0000 0.41088  0.57727  0.92182  Biso   1.000  O
  O14      1.0000 0.65531  0.57761  0.93758  Biso   1.000  O
  O15      1.0000 0.53743  0.43120  0.91870  Biso   1.000  O
  O16      1.0000 0.29217  0.42455  0.91192  Biso   1.000  O
