data_image0
_cell_length_a       31.4108
_cell_length_b       31.4765
_cell_length_c       31.7416
_cell_angle_alpha    89.934
_cell_angle_beta     90.0072
_cell_angle_gamma    89.9722

_symmetry_space_group_name_H-M    "P 1"
_symmetry_int_tables_number       1

loop_
  _symmetry_equiv_pos_as_xyz
  'x, y, z'

loop_
  _atom_site_label
  _atom_site_occupancy
  _atom_site_fract_x
  _atom_site_fract_y
  _atom_site_fract_z
  _atom_site_thermal_displace_type
  _atom_site_B_iso_or_equiv
  _atom_site_type_symbol
  Cu1      1.0000 0.77206  0.84638  0.77108  Biso   1.000  Cu
  Cu2      1.0000 0.76864  0.77239  0.84051  Biso   1.000  Cu
  Cu3      1.0000 0.84255  0.77380  0.77146  Biso   1.000  Cu
  Cu4      1.0000 0.22570  0.15567  0.77117  Biso   1.000  Cu
  Cu5      1.0000 0.22773  0.23135  0.83851  Biso   1.000  Cu
  Cu6      1.0000 0.15051  0.22431  0.77312  Biso   1.000  Cu
  Cu7      1.0000 0.77026  0.15921  0.23020  Biso   1.000  Cu
  Cu8      1.0000 0.76489  0.23664  0.16479  Biso   1.000  Cu
  Cu9      1.0000 0.84241  0.22997  0.22989  Biso   1.000  Cu
  Cu10     1.0000 0.23325  0.83876  0.22928  Biso   1.000  Cu
  Cu11     1.0000 0.23316  0.76840  0.15684  Biso   1.000  Cu
  Cu12     1.0000 0.16132  0.76683  0.22869  Biso   1.000  Cu
  H1       1.0000 0.69639  0.90495  0.80306  Biso   1.000  H
  H2       1.0000 0.69119  0.80460  0.89633  Biso   1.000  H
  H3       1.0000 0.89917  0.80263  0.69356  Biso   1.000  H
  H4       1.0000 0.80474  0.90291  0.69407  Biso   1.000  H
  H5       1.0000 0.79794  0.69328  0.89587  Biso   1.000  H
  H6       1.0000 0.90022  0.69790  0.80452  Biso   1.000  H
  H7       1.0000 0.30245  0.09941  0.80464  Biso   1.000  H
  H8       1.0000 0.30797  0.20389  0.89308  Biso   1.000  H
  H9       1.0000 0.09387  0.19151  0.69697  Biso   1.000  H
  H10      1.0000 0.19559  0.09865  0.69405  Biso   1.000  H
  H11      1.0000 0.19792  0.31125  0.89196  Biso   1.000  H
  H12      1.0000 0.09057  0.29800  0.80740  Biso   1.000  H
  H13      1.0000 0.69497  0.10153  0.19619  Biso   1.000  H
  H14      1.0000 0.68471  0.20822  0.11058  Biso   1.000  H
  H15      1.0000 0.90107  0.19692  0.30482  Biso   1.000  H
  H16      1.0000 0.80376  0.09953  0.30445  Biso   1.000  H
  H17      1.0000 0.79408  0.31662  0.11094  Biso   1.000  H
  H18      1.0000 0.90119  0.30447  0.19601  Biso   1.000  H
  H19      1.0000 0.30954  0.89716  0.19829  Biso   1.000  H
  H20      1.0000 0.30895  0.80251  0.09942  Biso   1.000  H
  H21      1.0000 0.10418  0.79770  0.30544  Biso   1.000  H
  H22      1.0000 0.20197  0.89462  0.30636  Biso   1.000  H
  H23      1.0000 0.20153  0.69183  0.09959  Biso   1.000  H
  H24      1.0000 0.10410  0.69062  0.19605  Biso   1.000  H
  H25      1.0000 0.59849  0.98580  0.88677  Biso   1.000  H
  H26      1.0000 0.65304  0.94624  0.84702  Biso   1.000  H
  H27      1.0000 0.62838  0.83523  0.92283  Biso   1.000  H
  H28      1.0000 0.57457  0.87527  0.96314  Biso   1.000  H
  H29      1.0000 0.40588  0.12196  0.97682  Biso   1.000  H
  H30      1.0000 0.35087  0.16077  0.93680  Biso   1.000  H
  H31      1.0000 0.36740  0.07455  0.83265  Biso   1.000  H
  H32      1.0000 0.42160  0.03517  0.87325  Biso   1.000  H
  H33      1.0000 0.57621  0.03610  0.12762  Biso   1.000  H
  H34      1.0000 0.62898  0.07650  0.16897  Biso   1.000  H
  H35      1.0000 0.64517  0.16322  0.06501  Biso   1.000  H
  H36      1.0000 0.59151  0.12343  0.02427  Biso   1.000  H
  H37      1.0000 0.42858  0.87304  0.03601  Biso   1.000  H
  H38      1.0000 0.37559  0.83160  0.07622  Biso   1.000  H
  H39      1.0000 0.34728  0.94209  0.15127  Biso   1.000  H
  H40      1.0000 0.40118  0.98300  0.11183  Biso   1.000  H
  H41      1.0000 0.87302  0.96543  0.57413  Biso   1.000  H
  H42      1.0000 0.83330  0.92729  0.62956  Biso   1.000  H
  H43      1.0000 0.94110  0.84477  0.64918  Biso   1.000  H
  H44      1.0000 0.98024  0.88233  0.59304  Biso   1.000  H
  H45      1.0000 0.02911  0.87286  0.41294  Biso   1.000  H
  H46      1.0000 0.06910  0.83287  0.35922  Biso   1.000  H
  H47      1.0000 0.16605  0.92983  0.35916  Biso   1.000  H
  H48      1.0000 0.12591  0.96962  0.41290  Biso   1.000  H
  H49      1.0000 0.01915  0.11178  0.59249  Biso   1.000  H
  H50      1.0000 0.05631  0.15081  0.64885  Biso   1.000  H
  H51      1.0000 0.16597  0.06997  0.63293  Biso   1.000  H
  H52      1.0000 0.12835  0.03058  0.57709  Biso   1.000  H
  H53      1.0000 0.98306  0.11151  0.40002  Biso   1.000  H
  H54      1.0000 0.94346  0.15151  0.34582  Biso   1.000  H
  H55      1.0000 0.83322  0.07310  0.36805  Biso   1.000  H
  H56      1.0000 0.87336  0.03245  0.42144  Biso   1.000  H
  H57      1.0000 0.87704  0.59084  0.97534  Biso   1.000  H
  H58      1.0000 0.83773  0.64567  0.93574  Biso   1.000  H
  H59      1.0000 0.93018  0.63794  0.83563  Biso   1.000  H
  H60      1.0000 0.96969  0.58357  0.87569  Biso   1.000  H
  H61      1.0000 0.87344  0.41751  0.02980  Biso   1.000  H
  H62      1.0000 0.83354  0.36388  0.07038  Biso   1.000  H
  H63      1.0000 0.93239  0.36330  0.16463  Biso   1.000  H
  H64      1.0000 0.97243  0.41647  0.12359  Biso   1.000  H
  H65      1.0000 0.03996  0.57055  0.12849  Biso   1.000  H
  H66      1.0000 0.08155  0.62358  0.16831  Biso   1.000  H
  H67      1.0000 0.15249  0.65379  0.05600  Biso   1.000  H
  H68      1.0000 0.11173  0.59982  0.01663  Biso   1.000  H
  H69      1.0000 0.11970  0.41383  0.97147  Biso   1.000  H
  H70      1.0000 0.15875  0.35883  0.93199  Biso   1.000  H
  H71      1.0000 0.05958  0.35773  0.83805  Biso   1.000  H
  H72      1.0000 0.02036  0.41226  0.87805  Biso   1.000  H
  C1       1.0000 0.70050  0.87702  0.82259  Biso   1.000  C
  C2       1.0000 0.67868  0.86462  0.85929  Biso   1.000  C
  C3       1.0000 0.69758  0.82555  0.87001  Biso   1.000  C
  C4       1.0000 0.87281  0.82406  0.69922  Biso   1.000  C
  C5       1.0000 0.86157  0.86189  0.67838  Biso   1.000  C
  C6       1.0000 0.82433  0.87507  0.69922  Biso   1.000  C
  C7       1.0000 0.81968  0.69978  0.87020  Biso   1.000  C
  C8       1.0000 0.85861  0.68026  0.85988  Biso   1.000  C
  C9       1.0000 0.87181  0.70198  0.82340  Biso   1.000  C
  C10      1.0000 0.29860  0.12834  0.82267  Biso   1.000  C
  C11      1.0000 0.32062  0.14243  0.85861  Biso   1.000  C
  C12      1.0000 0.30114  0.18151  0.86810  Biso   1.000  C
  C13      1.0000 0.12191  0.17205  0.70172  Biso   1.000  C
  C14      1.0000 0.13551  0.13554  0.68005  Biso   1.000  C
  C15      1.0000 0.17401  0.12478  0.70005  Biso   1.000  C
  C16      1.0000 0.17500  0.30265  0.86797  Biso   1.000  C
  C17      1.0000 0.13460  0.31988  0.85931  Biso   1.000  C
  C18      1.0000 0.12026  0.29603  0.82464  Biso   1.000  C
  C19      1.0000 0.69760  0.13110  0.17892  Biso   1.000  C
  C20      1.0000 0.67474  0.14538  0.14353  Biso   1.000  C
  C21      1.0000 0.69268  0.18538  0.13487  Biso   1.000  C
  C22      1.0000 0.87392  0.17647  0.29938  Biso   1.000  C
  C23      1.0000 0.86224  0.13838  0.31948  Biso   1.000  C
  C24      1.0000 0.82396  0.12694  0.29949  Biso   1.000  C
  C25      1.0000 0.81694  0.30836  0.13514  Biso   1.000  C
  C26      1.0000 0.85727  0.32574  0.14373  Biso   1.000  C
  C27      1.0000 0.87155  0.30228  0.17873  Biso   1.000  C
  C28      1.0000 0.30398  0.87056  0.17740  Biso   1.000  C
  C29      1.0000 0.32411  0.85991  0.13928  Biso   1.000  C
  C30      1.0000 0.30404  0.82191  0.12716  Biso   1.000  C
  C31      1.0000 0.13150  0.81806  0.30044  Biso   1.000  C
  C32      1.0000 0.14338  0.85574  0.32112  Biso   1.000  C
  C33      1.0000 0.18143  0.86757  0.30091  Biso   1.000  C
  C34      1.0000 0.18102  0.69699  0.12652  Biso   1.000  C
  C35      1.0000 0.14314  0.67623  0.13809  Biso   1.000  C
  C36      1.0000 0.13155  0.69600  0.17610  Biso   1.000  C
  C37      1.0000 0.99786  0.50068  0.99982  Biso   1.000  C
  C38      1.0000 0.49998  0.00426  0.99986  Biso   1.000  C
  C39      1.0000 0.00180  0.99673  0.49693  Biso   1.000  C
  C40      1.0000 0.58276  0.93350  0.92801  Biso   1.000  C
  C41      1.0000 0.60512  0.95280  0.89450  Biso   1.000  C
  C42      1.0000 0.63572  0.93026  0.87212  Biso   1.000  C
  C43      1.0000 0.64529  0.88761  0.88189  Biso   1.000  C
  C44      1.0000 0.62223  0.86828  0.91484  Biso   1.000  C
  C45      1.0000 0.59172  0.89061  0.93756  Biso   1.000  C
  C46      1.0000 0.55289  0.95706  0.95207  Biso   1.000  C
  C47      1.0000 0.52806  0.97781  0.97311  Biso   1.000  C
  C48      1.0000 0.41749  0.07556  0.92807  Biso   1.000  C
  C49      1.0000 0.39737  0.11174  0.94521  Biso   1.000  C
  C50      1.0000 0.36652  0.13358  0.92242  Biso   1.000  C
  C51      1.0000 0.35449  0.12056  0.88164  Biso   1.000  C
  C52      1.0000 0.37542  0.08500  0.86433  Biso   1.000  C
  C53      1.0000 0.40614  0.06281  0.88695  Biso   1.000  C
  C54      1.0000 0.44738  0.05191  0.95206  Biso   1.000  C
  C55      1.0000 0.47216  0.03106  0.97312  Biso   1.000  C
  C56      1.0000 0.58023  0.07669  0.07285  Biso   1.000  C
  C57      1.0000 0.59127  0.06408  0.11413  Biso   1.000  C
  C58      1.0000 0.62119  0.08685  0.13717  Biso   1.000  C
  C59      1.0000 0.64158  0.12288  0.12014  Biso   1.000  C
  C60      1.0000 0.62983  0.13573  0.07920  Biso   1.000  C
  C61      1.0000 0.59978  0.11333  0.05600  Biso   1.000  C
  C62      1.0000 0.55118  0.05251  0.04842  Biso   1.000  C
  C63      1.0000 0.52715  0.03130  0.02695  Biso   1.000  C
  C64      1.0000 0.41859  0.93105  0.07091  Biso   1.000  C
  C65      1.0000 0.41082  0.88795  0.06141  Biso   1.000  C
  C66      1.0000 0.38076  0.86486  0.08400  Biso   1.000  C
  C67      1.0000 0.35701  0.88365  0.11674  Biso   1.000  C
  C68      1.0000 0.36534  0.92654  0.12644  Biso   1.000  C
  C69      1.0000 0.39550  0.94982  0.10421  Biso   1.000  C
  C70      1.0000 0.44803  0.95538  0.04705  Biso   1.000  C
  C71      1.0000 0.47247  0.97686  0.02628  Biso   1.000  C
  C72      1.0000 0.92959  0.92680  0.57975  Biso   1.000  C
  C73      1.0000 0.88770  0.93886  0.59055  Biso   1.000  C
  C74      1.0000 0.86558  0.91738  0.62196  Biso   1.000  C
  C75      1.0000 0.88416  0.88322  0.64409  Biso   1.000  C
  C76      1.0000 0.92572  0.87087  0.63263  Biso   1.000  C
  C77      1.0000 0.94802  0.89199  0.60113  Biso   1.000  C
  C78      1.0000 0.95327  0.94985  0.54931  Biso   1.000  C
  C79      1.0000 0.97440  0.97013  0.52423  Biso   1.000  C
  C80      1.0000 0.07443  0.92431  0.41660  Biso   1.000  C
  C81      1.0000 0.05918  0.88513  0.40113  Biso   1.000  C
  C82      1.0000 0.08190  0.86277  0.37081  Biso   1.000  C
  C83      1.0000 0.12065  0.87830  0.35451  Biso   1.000  C
  C84      1.0000 0.13613  0.91699  0.37078  Biso   1.000  C
  C85      1.0000 0.11367  0.93959  0.40111  Biso   1.000  C
  C86      1.0000 0.05031  0.94835  0.44590  Biso   1.000  C
  C87      1.0000 0.02908  0.96958  0.47008  Biso   1.000  C
  C88      1.0000 0.07093  0.06817  0.58092  Biso   1.000  C
  C89      1.0000 0.05134  0.10281  0.60145  Biso   1.000  C
  C90      1.0000 0.07251  0.12472  0.63313  Biso   1.000  C
  C91      1.0000 0.11403  0.11332  0.64567  Biso   1.000  C
  C92      1.0000 0.13374  0.07927  0.62443  Biso   1.000  C
  C93      1.0000 0.11278  0.05704  0.59281  Biso   1.000  C
  C94      1.0000 0.04844  0.04443  0.55017  Biso   1.000  C
  C95      1.0000 0.02829  0.02363  0.52477  Biso   1.000  C
  C96      1.0000 0.93114  0.06897  0.41451  Biso   1.000  C
  C97      1.0000 0.95022  0.10328  0.39294  Biso   1.000  C
  C98      1.0000 0.92766  0.12580  0.36257  Biso   1.000  C
  C99      1.0000 0.88522  0.11539  0.35246  Biso   1.000  C
  C100     1.0000 0.86613  0.08158  0.37464  Biso   1.000  C
  C101     1.0000 0.88849  0.05870  0.40492  Biso   1.000  C
  C102     1.0000 0.95468  0.04482  0.44425  Biso   1.000  C
  C103     1.0000 0.97536  0.02369  0.46903  Biso   1.000  C
  C104     1.0000 0.92638  0.58343  0.92854  Biso   1.000  C
  C105     1.0000 0.88849  0.60122  0.94469  Biso   1.000  C
  C106     1.0000 0.86644  0.63206  0.92214  Biso   1.000  C
  C107     1.0000 0.88094  0.64649  0.88260  Biso   1.000  C
  C108     1.0000 0.91832  0.62794  0.86627  Biso   1.000  C
  C109     1.0000 0.94068  0.59717  0.88863  Biso   1.000  C
  C110     1.0000 0.95009  0.55348  0.95238  Biso   1.000  C
  C111     1.0000 0.97094  0.52864  0.97334  Biso   1.000  C
  C112     1.0000 0.92596  0.42068  0.07359  Biso   1.000  C
  C113     1.0000 0.88615  0.40560  0.05941  Biso   1.000  C
  C114     1.0000 0.86379  0.37542  0.08250  Biso   1.000  C
  C115     1.0000 0.87990  0.35900  0.12064  Biso   1.000  C
  C116     1.0000 0.91923  0.37491  0.13509  Biso   1.000  C
  C117     1.0000 0.94190  0.40498  0.11217  Biso   1.000  C
  C118     1.0000 0.94991  0.44982  0.04904  Biso   1.000  C
  C119     1.0000 0.97090  0.47391  0.02741  Biso   1.000  C
  C120     1.0000 0.07272  0.58148  0.06964  Biso   1.000  C
  C121     1.0000 0.06479  0.58872  0.11281  Biso   1.000  C
  C122     1.0000 0.08814  0.61881  0.13500  Biso   1.000  C
  C123     1.0000 0.12009  0.64313  0.11522  Biso   1.000  C
  C124     1.0000 0.12830  0.63528  0.07227  Biso   1.000  C
  C125     1.0000 0.10531  0.60509  0.04988  Biso   1.000  C
  C126     1.0000 0.04784  0.55216  0.04628  Biso   1.000  C
  C127     1.0000 0.02597  0.52791  0.02574  Biso   1.000  C
  C128     1.0000 0.06707  0.41684  0.92779  Biso   1.000  C
  C129     1.0000 0.10671  0.40146  0.94220  Biso   1.000  C
  C130     1.0000 0.12859  0.37051  0.91972  Biso   1.000  C
  C131     1.0000 0.11219  0.35359  0.88194  Biso   1.000  C
  C132     1.0000 0.07298  0.36970  0.86733  Biso   1.000  C
  C133     1.0000 0.05076  0.40055  0.88965  Biso   1.000  C
  C134     1.0000 0.04381  0.44705  0.95167  Biso   1.000  C
  C135     1.0000 0.02364  0.47224  0.97283  Biso   1.000  C
  N1       1.0000 0.72830  0.81559  0.84191  Biso   1.000  N
  N2       1.0000 0.73010  0.84763  0.81237  Biso   1.000  N
  N3       1.0000 0.81432  0.84726  0.73012  Biso   1.000  N
  N4       1.0000 0.84448  0.81550  0.73008  Biso   1.000  N
  N5       1.0000 0.84303  0.73211  0.81297  Biso   1.000  N
  N6       1.0000 0.81055  0.73071  0.84208  Biso   1.000  N
  N7       1.0000 0.26994  0.18994  0.83998  Biso   1.000  N
  N8       1.0000 0.26831  0.15678  0.81175  Biso   1.000  N
  N9       1.0000 0.18253  0.15269  0.73123  Biso   1.000  N
  N10      1.0000 0.15009  0.18212  0.73226  Biso   1.000  N
  N11      1.0000 0.14978  0.26684  0.81369  Biso   1.000  N
  N12      1.0000 0.18390  0.27100  0.84063  Biso   1.000  N
  N13      1.0000 0.72384  0.19414  0.16291  Biso   1.000  N
  N14      1.0000 0.72696  0.16028  0.19027  Biso   1.000  N
  N15      1.0000 0.81380  0.15595  0.26973  Biso   1.000  N
  N16      1.0000 0.84487  0.18678  0.26971  Biso   1.000  N
  N17      1.0000 0.84207  0.27317  0.18994  Biso   1.000  N
  N18      1.0000 0.80803  0.27699  0.16285  Biso   1.000  N
  N19      1.0000 0.27419  0.81093  0.15582  Biso   1.000  N
  N20      1.0000 0.27422  0.84117  0.18714  Biso   1.000  N
  N21      1.0000 0.19130  0.83919  0.27055  Biso   1.000  N
  N22      1.0000 0.16021  0.80836  0.27026  Biso   1.000  N
  N23      1.0000 0.16024  0.72627  0.18624  Biso   1.000  N
  N24      1.0000 0.19111  0.72684  0.15542  Biso   1.000  N
