data_image0
_cell_length_a       33.8224
_cell_length_b       34.1335
_cell_length_c       34.8812
_cell_angle_alpha    89.9478
_cell_angle_beta     89.9567
_cell_angle_gamma    89.974

_symmetry_space_group_name_H-M    "P 1"
_symmetry_int_tables_number       1

loop_
  _symmetry_equiv_pos_as_xyz
  'x, y, z'

loop_
  _atom_site_label
  _atom_site_occupancy
  _atom_site_fract_x
  _atom_site_fract_y
  _atom_site_fract_z
  _atom_site_thermal_displace_type
  _atom_site_B_iso_or_equiv
  _atom_site_type_symbol
  Cu1      1.0000 0.21846  0.21865  0.15502  Biso   1.000  Cu
  Cu2      1.0000 0.21870  0.15298  0.22009  Biso   1.000  Cu
  Cu3      1.0000 0.15119  0.21846  0.21984  Biso   1.000  Cu
  Cu4      1.0000 0.78290  0.21824  0.84522  Biso   1.000  Cu
  Cu5      1.0000 0.78307  0.15158  0.78137  Biso   1.000  Cu
  Cu6      1.0000 0.84903  0.21855  0.78000  Biso   1.000  Cu
  Cu7      1.0000 0.21708  0.78205  0.84510  Biso   1.000  Cu
  Cu8      1.0000 0.21844  0.84809  0.77999  Biso   1.000  Cu
  Cu9      1.0000 0.15110  0.78165  0.77997  Biso   1.000  Cu
  Cu10     1.0000 0.78291  0.78202  0.15500  Biso   1.000  Cu
  Cu11     1.0000 0.78293  0.84830  0.21990  Biso   1.000  Cu
  Cu12     1.0000 0.84909  0.78152  0.22002  Biso   1.000  Cu
  H1       1.0000 0.28791  0.18733  0.10130  Biso   1.000  H
  H2       1.0000 0.28780  0.09762  0.18937  Biso   1.000  H
  H3       1.0000 0.09575  0.28703  0.18886  Biso   1.000  H
  H4       1.0000 0.18716  0.28788  0.10167  Biso   1.000  H
  H5       1.0000 0.18894  0.09926  0.28922  Biso   1.000  H
  H6       1.0000 0.09723  0.18803  0.28877  Biso   1.000  H
  H7       1.0000 0.71327  0.18746  0.89936  Biso   1.000  H
  H8       1.0000 0.71417  0.09638  0.81280  Biso   1.000  H
  H9       1.0000 0.90433  0.28788  0.81002  Biso   1.000  H
  H10      1.0000 0.81410  0.28755  0.89838  Biso   1.000  H
  H11      1.0000 0.81335  0.09770  0.71261  Biso   1.000  H
  H12      1.0000 0.90234  0.18905  0.71028  Biso   1.000  H
  H13      1.0000 0.28550  0.81348  0.89979  Biso   1.000  H
  H14      1.0000 0.28759  0.90286  0.81144  Biso   1.000  H
  H15      1.0000 0.09572  0.71225  0.81020  Biso   1.000  H
  H16      1.0000 0.18598  0.71267  0.89839  Biso   1.000  H
  H17      1.0000 0.18848  0.90124  0.71065  Biso   1.000  H
  H18      1.0000 0.09755  0.81178  0.71104  Biso   1.000  H
  H19      1.0000 0.71352  0.81336  0.10144  Biso   1.000  H
  H20      1.0000 0.71399  0.90361  0.18880  Biso   1.000  H
  H21      1.0000 0.90437  0.71230  0.18965  Biso   1.000  H
  H22      1.0000 0.81400  0.71274  0.10156  Biso   1.000  H
  H23      1.0000 0.81348  0.90160  0.28893  Biso   1.000  H
  H24      1.0000 0.90315  0.81080  0.28918  Biso   1.000  H
  H25      1.0000 0.95641  0.95434  0.47420  Biso   1.000  H
  H26      1.0000 0.04408  0.04581  0.47410  Biso   1.000  H
  H27      1.0000 0.04413  0.95443  0.52592  Biso   1.000  H
  H28      1.0000 0.95621  0.04575  0.52582  Biso   1.000  H
  H29      1.0000 0.00046  0.99992  0.36688  Biso   1.000  H
  H30      1.0000 0.99981  0.99986  0.63313  Biso   1.000  H
  H31      1.0000 0.47324  0.95727  0.95452  Biso   1.000  H
  H32      1.0000 0.47341  0.04216  0.04579  Biso   1.000  H
  H33      1.0000 0.52673  0.04222  0.95453  Biso   1.000  H
  H34      1.0000 0.52663  0.95717  0.04581  Biso   1.000  H
  H35      1.0000 0.36270  1.00000  0.00024  Biso   1.000  H
  H36      1.0000 0.63731  0.99986  0.00038  Biso   1.000  H
  H37      1.0000 0.95808  0.47360  0.95352  Biso   1.000  H
  H38      1.0000 0.04166  0.47330  0.04662  Biso   1.000  H
  H39      1.0000 0.95808  0.52635  0.04660  Biso   1.000  H
  H40      1.0000 0.04185  0.52630  0.95354  Biso   1.000  H
  H41      1.0000 0.99988  0.36384  0.99986  Biso   1.000  H
  H42      1.0000 0.99996  0.63594  0.99996  Biso   1.000  H
  C1       1.0000 0.28295  0.16918  0.12630  Biso   1.000  C
  C2       1.0000 0.30069  0.13314  0.13623  Biso   1.000  C
  C3       1.0000 0.28290  0.12312  0.17151  Biso   1.000  C
  C4       1.0000 0.12163  0.28228  0.17118  Biso   1.000  C
  C5       1.0000 0.13216  0.30035  0.13622  Biso   1.000  C
  C6       1.0000 0.16855  0.28271  0.12643  Biso   1.000  C
  C7       1.0000 0.17014  0.12440  0.28411  Biso   1.000  C
  C8       1.0000 0.13411  0.13461  0.30195  Biso   1.000  C
  C9       1.0000 0.12306  0.16997  0.28388  Biso   1.000  C
  C10      1.0000 0.71847  0.16890  0.87471  Biso   1.000  C
  C11      1.0000 0.70081  0.13272  0.86523  Biso   1.000  C
  C12      1.0000 0.71892  0.12215  0.83027  Biso   1.000  C
  C13      1.0000 0.87873  0.28284  0.82801  Biso   1.000  C
  C14      1.0000 0.86851  0.30061  0.86317  Biso   1.000  C
  C15      1.0000 0.83241  0.28266  0.87336  Biso   1.000  C
  C16      1.0000 0.83148  0.12343  0.71708  Biso   1.000  C
  C17      1.0000 0.86679  0.13449  0.69839  Biso   1.000  C
  C18      1.0000 0.87716  0.17032  0.71587  Biso   1.000  C
  C19      1.0000 0.28108  0.83160  0.87467  Biso   1.000  C
  C20      1.0000 0.29937  0.86739  0.86483  Biso   1.000  C
  C21      1.0000 0.28216  0.87748  0.82932  Biso   1.000  C
  C22      1.0000 0.12131  0.71734  0.82815  Biso   1.000  C
  C23      1.0000 0.13158  0.69952  0.86329  Biso   1.000  C
  C24      1.0000 0.16764  0.71755  0.87341  Biso   1.000  C
  C25      1.0000 0.16989  0.87596  0.71576  Biso   1.000  C
  C26      1.0000 0.13402  0.86545  0.69785  Biso   1.000  C
  C27      1.0000 0.12321  0.83005  0.71597  Biso   1.000  C
  C28      1.0000 0.71860  0.83167  0.12628  Biso   1.000  C
  C29      1.0000 0.70083  0.86774  0.13604  Biso   1.000  C
  C30      1.0000 0.71883  0.87801  0.17111  Biso   1.000  C
  C31      1.0000 0.87875  0.71737  0.17174  Biso   1.000  C
  C32      1.0000 0.86845  0.69958  0.13663  Biso   1.000  C
  C33      1.0000 0.83235  0.71760  0.12653  Biso   1.000  C
  C34      1.0000 0.83172  0.87602  0.28399  Biso   1.000  C
  C35      1.0000 0.86739  0.86504  0.30204  Biso   1.000  C
  C36      1.0000 0.87776  0.82942  0.28413  Biso   1.000  C
  C37      1.0000 0.97562  0.97430  0.45858  Biso   1.000  C
  C38      1.0000 0.00022  0.00009  0.47862  Biso   1.000  C
  C39      1.0000 0.02493  0.02581  0.45852  Biso   1.000  C
  C40      1.0000 0.02535  0.02591  0.41800  Biso   1.000  C
  C41      1.0000 0.00039  0.99997  0.39804  Biso   1.000  C
  C42      1.0000 0.97537  0.97407  0.41806  Biso   1.000  C
  C43      1.0000 0.00016  0.00007  0.52139  Biso   1.000  C
  C44      1.0000 0.02484  0.97434  0.54149  Biso   1.000  C
  C45      1.0000 0.02506  0.97410  0.58202  Biso   1.000  C
  C46      1.0000 0.99992  0.99992  0.60197  Biso   1.000  C
  C47      1.0000 0.97494  0.02585  0.58195  Biso   1.000  C
  C48      1.0000 0.97538  0.02576  0.54143  Biso   1.000  C
  C49      1.0000 0.45720  0.97591  0.97446  Biso   1.000  C
  C50      1.0000 0.47796  0.99971  0.00015  Biso   1.000  C
  C51      1.0000 0.45730  0.02361  0.02587  Biso   1.000  C
  C52      1.0000 0.41551  0.02409  0.02603  Biso   1.000  C
  C53      1.0000 0.39483  0.99992  0.00022  Biso   1.000  C
  C54      1.0000 0.41541  0.97562  0.97438  Biso   1.000  C
  C55      1.0000 0.52206  0.99968  0.00015  Biso   1.000  C
  C56      1.0000 0.54279  0.02359  0.97447  Biso   1.000  C
  C57      1.0000 0.58458  0.02404  0.97444  Biso   1.000  C
  C58      1.0000 0.60518  0.99978  0.00031  Biso   1.000  C
  C59      1.0000 0.58452  0.97549  0.02611  Biso   1.000  C
  C60      1.0000 0.54273  0.97580  0.02589  Biso   1.000  C
  C61      1.0000 0.97640  0.45760  0.97380  Biso   1.000  C
  C62      1.0000 0.99989  0.47804  0.00006  Biso   1.000  C
  C63      1.0000 0.02334  0.45743  0.02628  Biso   1.000  C
  C64      1.0000 0.02378  0.41602  0.02630  Biso   1.000  C
  C65      1.0000 0.99987  0.39567  0.99994  Biso   1.000  C
  C66      1.0000 0.97597  0.41619  0.97365  Biso   1.000  C
  C67      1.0000 0.99995  0.52174  0.00006  Biso   1.000  C
  C68      1.0000 0.97645  0.54227  0.02628  Biso   1.000  C
  C69      1.0000 0.97603  0.58368  0.02634  Biso   1.000  C
  C70      1.0000 0.99997  0.60410  0.99999  Biso   1.000  C
  C71      1.0000 0.02393  0.58366  0.97369  Biso   1.000  C
  C72      1.0000 0.02349  0.54224  0.97382  Biso   1.000  C
  C73      1.0000 0.32809  0.11137  0.11486  Biso   1.000  C
  C74      1.0000 0.35069  0.09163  0.09513  Biso   1.000  C
  C75      1.0000 0.37393  0.06924  0.07257  Biso   1.000  C
  C76      1.0000 0.39419  0.04852  0.05147  Biso   1.000  C
  C77      1.0000 0.67317  0.11123  0.88657  Biso   1.000  C
  C78      1.0000 0.65026  0.09153  0.90603  Biso   1.000  C
  C79      1.0000 0.62667  0.06920  0.92831  Biso   1.000  C
  C80      1.0000 0.60606  0.04851  0.94914  Biso   1.000  C
  C81      1.0000 0.32687  0.88890  0.88627  Biso   1.000  C
  C82      1.0000 0.34972  0.90850  0.90581  Biso   1.000  C
  C83      1.0000 0.37330  0.93072  0.92816  Biso   1.000  C
  C84      1.0000 0.39390  0.95128  0.94904  Biso   1.000  C
  C85      1.0000 0.67315  0.88924  0.11476  Biso   1.000  C
  C86      1.0000 0.65018  0.90866  0.09513  Biso   1.000  C
  C87      1.0000 0.62656  0.93074  0.07263  Biso   1.000  C
  C88      1.0000 0.60596  0.95118  0.05158  Biso   1.000  C
  C89      1.0000 0.11052  0.32793  0.11504  Biso   1.000  C
  C90      1.0000 0.09085  0.35075  0.09552  Biso   1.000  C
  C91      1.0000 0.06857  0.37421  0.07307  Biso   1.000  C
  C92      1.0000 0.04799  0.39467  0.05199  Biso   1.000  C
  C93      1.0000 0.88999  0.67191  0.11550  Biso   1.000  C
  C94      1.0000 0.90942  0.64900  0.09587  Biso   1.000  C
  C95      1.0000 0.93148  0.62546  0.07330  Biso   1.000  C
  C96      1.0000 0.95187  0.60497  0.05211  Biso   1.000  C
  C97      1.0000 0.89012  0.32821  0.88428  Biso   1.000  C
  C98      1.0000 0.90955  0.35105  0.90393  Biso   1.000  C
  C99      1.0000 0.93157  0.37451  0.92655  Biso   1.000  C
  C100     1.0000 0.95188  0.39497  0.94781  Biso   1.000  C
  C101     1.0000 0.11002  0.67186  0.88444  Biso   1.000  C
  C102     1.0000 0.09054  0.64898  0.90408  Biso   1.000  C
  C103     1.0000 0.06846  0.62546  0.92668  Biso   1.000  C
  C104     1.0000 0.04808  0.60495  0.94789  Biso   1.000  C
  C105     1.0000 0.11303  0.11348  0.32974  Biso   1.000  C
  C106     1.0000 0.09358  0.09417  0.35277  Biso   1.000  C
  C107     1.0000 0.07125  0.07199  0.37640  Biso   1.000  C
  C108     1.0000 0.05040  0.05128  0.39698  Biso   1.000  C
  C109     1.0000 0.11285  0.88643  0.67003  Biso   1.000  C
  C110     1.0000 0.09331  0.90566  0.64702  Biso   1.000  C
  C111     1.0000 0.07091  0.92785  0.62347  Biso   1.000  C
  C112     1.0000 0.05006  0.94866  0.60299  Biso   1.000  C
  C113     1.0000 0.88862  0.88585  0.32987  Biso   1.000  C
  C114     1.0000 0.90792  0.90518  0.35295  Biso   1.000  C
  C115     1.0000 0.93002  0.92750  0.37657  Biso   1.000  C
  C116     1.0000 0.95057  0.94848  0.39711  Biso   1.000  C
  C117     1.0000 0.88782  0.11361  0.67042  Biso   1.000  C
  C118     1.0000 0.90710  0.09435  0.64723  Biso   1.000  C
  C119     1.0000 0.92927  0.07213  0.62352  Biso   1.000  C
  C120     1.0000 0.94996  0.05130  0.60292  Biso   1.000  C
  N1       1.0000 0.25659  0.15096  0.18152  Biso   1.000  N
  N2       1.0000 0.25664  0.17952  0.15349  Biso   1.000  N
  N3       1.0000 0.17860  0.25621  0.15338  Biso   1.000  N
  N4       1.0000 0.14948  0.25594  0.18113  Biso   1.000  N
  N5       1.0000 0.15031  0.17975  0.25736  Biso   1.000  N
  N6       1.0000 0.17951  0.15150  0.25750  Biso   1.000  N
  N7       1.0000 0.74530  0.14981  0.82002  Biso   1.000  N
  N8       1.0000 0.74502  0.17881  0.84756  Biso   1.000  N
  N9       1.0000 0.82223  0.25625  0.84643  Biso   1.000  N
  N10      1.0000 0.85095  0.25636  0.81831  Biso   1.000  N
  N11      1.0000 0.85020  0.17956  0.74285  Biso   1.000  N
  N12      1.0000 0.82187  0.15049  0.74360  Biso   1.000  N
  N13      1.0000 0.25569  0.84992  0.81909  Biso   1.000  N
  N14      1.0000 0.25502  0.82145  0.84722  Biso   1.000  N
  N15      1.0000 0.17775  0.74404  0.84647  Biso   1.000  N
  N16      1.0000 0.14901  0.74392  0.81840  Biso   1.000  N
  N17      1.0000 0.15043  0.82053  0.74259  Biso   1.000  N
  N18      1.0000 0.17939  0.84900  0.74245  Biso   1.000  N
  N19      1.0000 0.74526  0.85029  0.18115  Biso   1.000  N
  N20      1.0000 0.74510  0.82155  0.15335  Biso   1.000  N
  N21      1.0000 0.82224  0.74403  0.15347  Biso   1.000  N
  N22      1.0000 0.85101  0.74391  0.18151  Biso   1.000  N
  N23      1.0000 0.85046  0.82021  0.25750  Biso   1.000  N
  N24      1.0000 0.82192  0.84911  0.25743  Biso   1.000  N
