data_image0
_cell_length_a       18.4225
_cell_length_b       18.4257
_cell_length_c       18.4257
_cell_angle_alpha    60.1794
_cell_angle_beta     60.1742
_cell_angle_gamma    60.1742

_symmetry_space_group_name_H-M    "P 1"
_symmetry_int_tables_number       1

loop_
  _symmetry_equiv_pos_as_xyz
  'x, y, z'

loop_
  _atom_site_label
  _atom_site_occupancy
  _atom_site_fract_x
  _atom_site_fract_y
  _atom_site_fract_z
  _atom_site_thermal_displace_type
  _atom_site_B_iso_or_equiv
  _atom_site_type_symbol
  C1       1.0000 0.61123  0.88905  0.88905  Biso   1.000  C
  C2       1.0000 0.88885  0.61101  0.61101  Biso   1.000  C
  C3       1.0000 0.88906  0.88903  0.61126  Biso   1.000  C
  C4       1.0000 0.61097  0.61103  0.88884  Biso   1.000  C
  C5       1.0000 0.88906  0.61125  0.88903  Biso   1.000  C
  C6       1.0000 0.61097  0.88884  0.61103  Biso   1.000  C
  C7       1.0000 0.38877  0.11095  0.11095  Biso   1.000  C
  C8       1.0000 0.11115  0.38899  0.38899  Biso   1.000  C
  C9       1.0000 0.38903  0.11116  0.38897  Biso   1.000  C
  C10      1.0000 0.11094  0.38874  0.11097  Biso   1.000  C
  C11      1.0000 0.38903  0.38897  0.11116  Biso   1.000  C
  C12      1.0000 0.11094  0.11097  0.38875  Biso   1.000  C
  C13      1.0000 0.55374  0.94635  0.94636  Biso   1.000  C
  C14      1.0000 0.94623  0.55367  0.55367  Biso   1.000  C
  C15      1.0000 0.94637  0.94634  0.55375  Biso   1.000  C
  C16      1.0000 0.55366  0.55368  0.94623  Biso   1.000  C
  C17      1.0000 0.94637  0.55375  0.94634  Biso   1.000  C
  C18      1.0000 0.55366  0.94622  0.55368  Biso   1.000  C
  C19      1.0000 0.44626  0.05364  0.05365  Biso   1.000  C
  C20      1.0000 0.05377  0.44633  0.44633  Biso   1.000  C
  C21      1.0000 0.44634  0.05377  0.44632  Biso   1.000  C
  C22      1.0000 0.05363  0.44625  0.05366  Biso   1.000  C
  C23      1.0000 0.44634  0.44632  0.05378  Biso   1.000  C
  C24      1.0000 0.05363  0.05366  0.44625  Biso   1.000  C
  C25      1.0000 0.52671  0.90755  0.03911  Biso   1.000  C
  C26      1.0000 0.52671  0.03910  0.90755  Biso   1.000  C
  C27      1.0000 0.03901  0.52690  0.52690  Biso   1.000  C
  C28      1.0000 0.90755  0.52645  0.52645  Biso   1.000  C
  C29      1.0000 0.90752  0.03909  0.52673  Biso   1.000  C
  C30      1.0000 0.03914  0.90755  0.52670  Biso   1.000  C
  C31      1.0000 0.52692  0.52692  0.03898  Biso   1.000  C
  C32      1.0000 0.52643  0.52644  0.90757  Biso   1.000  C
  C33      1.0000 0.03914  0.52670  0.90755  Biso   1.000  C
  C34      1.0000 0.90753  0.52673  0.03909  Biso   1.000  C
  C35      1.0000 0.52692  0.03897  0.52692  Biso   1.000  C
  C36      1.0000 0.52643  0.90756  0.52644  Biso   1.000  C
  C37      1.0000 0.47329  0.09245  0.96090  Biso   1.000  C
  C38      1.0000 0.47329  0.96089  0.09245  Biso   1.000  C
  C39      1.0000 0.09246  0.47355  0.47354  Biso   1.000  C
  C40      1.0000 0.96099  0.47310  0.47310  Biso   1.000  C
  C41      1.0000 0.47308  0.96102  0.47308  Biso   1.000  C
  C42      1.0000 0.47357  0.09243  0.47356  Biso   1.000  C
  C43      1.0000 0.09248  0.47327  0.96091  Biso   1.000  C
  C44      1.0000 0.96086  0.47330  0.09245  Biso   1.000  C
  C45      1.0000 0.47357  0.47356  0.09244  Biso   1.000  C
  C46      1.0000 0.47308  0.47308  0.96103  Biso   1.000  C
  C47      1.0000 0.09248  0.96091  0.47327  Biso   1.000  C
  C48      1.0000 0.96086  0.09245  0.47330  Biso   1.000  C
  H1       1.0000 0.54821  0.83566  0.06800  Biso   1.000  H
  H2       1.0000 0.54821  0.06800  0.83567  Biso   1.000  H
  H3       1.0000 0.06787  0.54855  0.54855  Biso   1.000  H
  H4       1.0000 0.83566  0.54776  0.54776  Biso   1.000  H
  H5       1.0000 0.83562  0.06796  0.54825  Biso   1.000  H
  H6       1.0000 0.06805  0.83566  0.54819  Biso   1.000  H
  H7       1.0000 0.54859  0.54860  0.06779  Biso   1.000  H
  H8       1.0000 0.54772  0.54774  0.83569  Biso   1.000  H
  H9       1.0000 0.06805  0.54819  0.83567  Biso   1.000  H
  H10      1.0000 0.83562  0.54825  0.06796  Biso   1.000  H
  H11      1.0000 0.54859  0.06779  0.54860  Biso   1.000  H
  H12      1.0000 0.54773  0.83569  0.54774  Biso   1.000  H
  H13      1.0000 0.45179  0.16434  0.93200  Biso   1.000  H
  H14      1.0000 0.45179  0.93200  0.16434  Biso   1.000  H
  H15      1.0000 0.16434  0.45224  0.45224  Biso   1.000  H
  H16      1.0000 0.93213  0.45145  0.45145  Biso   1.000  H
  H17      1.0000 0.45141  0.93221  0.45140  Biso   1.000  H
  H18      1.0000 0.45228  0.16431  0.45226  Biso   1.000  H
  H19      1.0000 0.16438  0.45175  0.93204  Biso   1.000  H
  H20      1.0000 0.93195  0.45181  0.16434  Biso   1.000  H
  H21      1.0000 0.45228  0.45226  0.16431  Biso   1.000  H
  H22      1.0000 0.45141  0.45140  0.93221  Biso   1.000  H
  H23      1.0000 0.16438  0.93204  0.45175  Biso   1.000  H
  H24      1.0000 0.93195  0.16433  0.45181  Biso   1.000  H
  O1       1.0000 0.75000  0.75000  0.75000  Biso   1.000  O
  O2       1.0000 0.25000  0.25000  0.25000  Biso   1.000  O
  O3       1.0000 0.63342  0.80515  0.92873  Biso   1.000  O
  O4       1.0000 0.63342  0.92873  0.80515  Biso   1.000  O
  O5       1.0000 0.92858  0.63326  0.63326  Biso   1.000  O
  O6       1.0000 0.80491  0.63298  0.63299  Biso   1.000  O
  O7       1.0000 0.80514  0.92871  0.63341  Biso   1.000  O
  O8       1.0000 0.92876  0.80513  0.63351  Biso   1.000  O
  O9       1.0000 0.63328  0.63324  0.92855  Biso   1.000  O
  O10      1.0000 0.63288  0.63306  0.80493  Biso   1.000  O
  O11      1.0000 0.92876  0.63350  0.80513  Biso   1.000  O
  O12      1.0000 0.80514  0.63340  0.92871  Biso   1.000  O
  O13      1.0000 0.63328  0.92855  0.63324  Biso   1.000  O
  O14      1.0000 0.63288  0.80492  0.63306  Biso   1.000  O
  O15      1.0000 0.36658  0.19485  0.07127  Biso   1.000  O
  O16      1.0000 0.36658  0.07127  0.19485  Biso   1.000  O
  O17      1.0000 0.19509  0.36701  0.36701  Biso   1.000  O
  O18      1.0000 0.07142  0.36674  0.36674  Biso   1.000  O
  O19      1.0000 0.36672  0.07145  0.36676  Biso   1.000  O
  O20      1.0000 0.36712  0.19507  0.36694  Biso   1.000  O
  O21      1.0000 0.19486  0.36659  0.07129  Biso   1.000  O
  O22      1.0000 0.07124  0.36649  0.19487  Biso   1.000  O
  O23      1.0000 0.36712  0.36694  0.19508  Biso   1.000  O
  O24      1.0000 0.36672  0.36676  0.07145  Biso   1.000  O
  O25      1.0000 0.19486  0.07129  0.36660  Biso   1.000  O
  O26      1.0000 0.07124  0.19487  0.36650  Biso   1.000  O
  Zn1      1.0000 0.70671  0.70673  0.88033  Biso   1.000  Zn
  Zn2      1.0000 0.70671  0.88033  0.70673  Biso   1.000  Zn
  Zn3      1.0000 0.88036  0.70672  0.70672  Biso   1.000  Zn
  Zn4      1.0000 0.70635  0.70639  0.70639  Biso   1.000  Zn
  Zn5      1.0000 0.29329  0.29327  0.11967  Biso   1.000  Zn
  Zn6      1.0000 0.29329  0.11967  0.29327  Biso   1.000  Zn
  Zn7      1.0000 0.29366  0.29361  0.29361  Biso   1.000  Zn
  Zn8      1.0000 0.11964  0.29328  0.29328  Biso   1.000  Zn
