# generated using pymatgen
data_CoH5C7NO5
_symmetry_space_group_name_H-M   'P 1'
_cell_length_a   7.78957000
_cell_length_b   15.23681000
_cell_length_c   6.44336000
_cell_angle_alpha   90.00000000
_cell_angle_beta   108.45570000
_cell_angle_gamma   90.00000000
_symmetry_Int_Tables_number   1
_chemical_formula_structural   CoH5C7NO5
_chemical_formula_sum   'Co4 H20 C28 N4 O20'
_cell_volume   725.41866502
_cell_formula_units_Z   4
loop_
 _symmetry_equiv_pos_site_id
 _symmetry_equiv_pos_as_xyz
  1  'x, y, z'
loop_
 _atom_site_type_symbol
 _atom_site_label
 _atom_site_symmetry_multiplicity
 _atom_site_fract_x
 _atom_site_fract_y
 _atom_site_fract_z
 _atom_site_occupancy
  Co  Co0  1  0.22249600  0.08076300  0.74871800  1
  Co  Co1  1  0.22249600  0.41923700  0.24871800  1
  Co  Co2  1  0.77750400  0.91923700  0.25128200  1
  Co  Co3  1  0.77750400  0.58076300  0.75128200  1
  O  O4  1  0.09944000  0.07768160  0.39695000  1
  O  O5  1  0.09944000  0.42231840  0.89695000  1
  O  O6  1  0.90056000  0.92231840  0.60305000  1
  O  O7  1  0.90056000  0.57768160  0.10305000  1
  O  O12  1  0.48474000  0.43760170  0.21275000  1
  O  O13  1  0.48474000  0.06239830  0.71275000  1
  O  O14  1  0.51526000  0.56239830  0.78725000  1
  O  O15  1  0.51526000  0.93760170  0.28725000  1
  O  O16  1  0.38404000  0.30476170  0.22415000  1
  O  O17  1  0.38404000  0.19523830  0.72415000  1
  O  O18  1  0.61596000  0.69523830  0.77585000  1
  O  O19  1  0.61596000  0.80476170  0.27585000  1
  O  O20  1  0.80744000  0.04959170  0.22055000  1
  O  O21  1  0.80744000  0.45040830  0.72055000  1
  O  O22  1  0.19256000  0.95040830  0.77945000  1
  O  O23  1  0.19256000  0.54959170  0.27945000  1
  N  N24  1  0.00344000  0.34460190  0.27885000  1
  N  N25  1  0.00344000  0.15539810  0.77885000  1
  N  N26  1  0.00000000  0.65539810  0.72115000  1
  N  N27  1  0.00000000  0.84460190  0.22115000  1
  C  C28  1  0.93815000  0.10032000  0.30146000  1
  C  C29  1  0.93815000  0.39968000  0.80146000  1
  C  C30  1  0.06185000  0.89968000  0.69854000  1
  C  C31  1  0.06185000  0.60032000  0.19854000  1
  C  C32  1  0.89345000  0.19702000  0.27996000  1
  C  C33  1  0.89345000  0.30298000  0.77996000  1
  C  C34  1  0.10655000  0.80298000  0.72004000  1
  C  C35  1  0.10655000  0.69702000  0.22004000  1
  C  C36  1  0.71955000  0.22822000  0.24346000  1
  C  C37  1  0.71955000  0.27178000  0.74346000  1
  C  C38  1  0.28045000  0.77178000  0.75654000  1
  C  C39  1  0.28045000  0.72822000  0.25654000  1
  C  C40  1  0.03275000  0.25752000  0.30326000  1
  C  C41  1  0.03275000  0.24248000  0.80326000  1
  C  C42  1  0.96725000  0.74248000  0.69674000  1
  C  C43  1  0.96725000  0.75752000  0.19674000  1
  C  C44  1  0.83415000  0.37402000  0.24546000  1
  C  C45  1  0.83415000  0.12598000  0.74546000  1
  C  C46  1  0.16585000  0.62598000  0.75454000  1
  C  C47  1  0.16585000  0.87402000  0.25454000  1
  C  C48  1  0.69125000  0.31852000  0.23466000  1
  C  C49  1  0.69125000  0.18148000  0.73466000  1
  C  C50  1  0.30875000  0.68148000  0.76534000  1
  C  C51  1  0.30875000  0.81852000  0.26534000  1
  C  C52  1  0.50785000  0.35512000  0.21976000  1
  C  C53  1  0.50785000  0.14488000  0.71976000  1
  C  C54  1  0.49215000  0.64488000  0.78024000  1
  C  C55  1  0.49215000  0.85512000  0.28024000  1
  H  H56  1  0.62460000  0.19030000  0.22670000  1
  H  H57  1  0.62460000  0.30970000  0.72670000  1
  H  H58  1  0.37540000  0.80970000  0.77330000  1
  H  H59  1  0.37540000  0.69030000  0.27330000  1
  H  H60  1  0.16360000  0.24130000  0.34460000  1
  H  H61  1  0.16360000  0.25870000  0.84460000  1
  H  H62  1  0.83640000  0.75870000  0.65540000  1
  H  H63  1  0.83640000  0.74130000  0.15540000  1
  H  H64  1  0.82860000  0.43230000  0.24970000  1
  H  H65  1  0.82860000  0.06770000  0.74970000  1
  H  H66  1  0.17140000  0.56770000  0.75030000  1
  H  H67  1  0.17140000  0.93230000  0.25030000  1
