# generated using pymatgen
data_CeH12(C7O2)3
_symmetry_space_group_name_H-M   'P 1'
_cell_length_a   8.78920000
_cell_length_b   14.25740000
_cell_length_c   15.10959993
_cell_angle_alpha   114.93219812
_cell_angle_beta   106.90874356
_cell_angle_gamma   90.00000000
_symmetry_Int_Tables_number   1
_chemical_formula_structural   CeH12(C7O2)3
_chemical_formula_sum   'Ce2 H24 C42 O12'
_cell_volume   1626.23955972
_cell_formula_units_Z   2
loop_
 _symmetry_equiv_pos_site_id
 _symmetry_equiv_pos_as_xyz
  1  'x, y, z'
loop_
 _atom_site_type_symbol
 _atom_site_label
 _atom_site_symmetry_multiplicity
 _atom_site_fract_x
 _atom_site_fract_y
 _atom_site_fract_z
 _atom_site_occupancy
  C  C4  1  0.62176500  0.13281000  0.42630000  1.0
  C  C5  1  0.19546500  0.86719000  0.57370000  1.0
  C  C8  1  0.61636400  0.23199000  0.41330000  1.0
  C  C9  1  0.20306400  0.76801000  0.58670000  1.0
  C  C12  1  0.71206500  0.24981000  0.36130000  1.0
  C  C13  1  0.35076500  0.75019000  0.63870000  1.0
  C  C20  1  0.70916500  0.34609000  0.35310000  1.0
  C  C21  1  0.35606500  0.65391000  0.64690000  1.0
  C  C28  1  0.61496500  0.41831000  0.39430000  1.0
  C  C29  1  0.22066500  0.58169000  0.60570000  1.0
  C  C32  1  0.51668900  0.39621200  0.44114000  1.0
  C  C33  1  0.07554900  0.60378800  0.55886000  1.0
  C  C40  1  0.51958800  0.30181100  0.44914000  1.0
  C  C41  1  0.07044800  0.69818900  0.55086000  1.0
  C  C48  1  0.62296500  0.52259000  0.39030000  1.0
  C  C49  1  0.23266500  0.47741000  0.60970000  1.0
  C  C52  1  0.66496700  0.52919000  0.31050000  1.0
  C  C53  1  0.35446700  0.47081000  0.68950000  1.0
  C  C60  1  0.68796600  0.63019000  0.31270000  1.0
  C  C61  1  0.37526600  0.36981000  0.68730000  1.0
  C  C68  1  0.66586400  0.71559000  0.38990000  1.0
  C  C69  1  0.27596400  0.28441000  0.61010000  1.0
  C  C72  1  0.61317800  0.70631000  0.46412000  1.0
  C  C73  1  0.14905800  0.29369000  0.53588000  1.0
  C  C80  1  0.59767700  0.60941100  0.46512000  1.0
  C  C81  1  0.13255700  0.39058900  0.53488000  1.0
  C  C88  1  0.71135400  0.82289000  0.39828000  1.0
  C  C89  1  0.31307400  0.17711000  0.60172000  1.0
  C  C92  1  0.89075300  0.16669000  0.67088000  1.0
  C  C93  1  0.21987300  0.83331000  0.32912000  1.0
  C  C96  1  0.94136600  0.26571000  0.76710000  1.0
  C  C97  1  0.17426600  0.73429000  0.23290000  1.0
  C  C100  1  0.09587700  0.31421200  0.81152000  1.0
  C  C101  1  0.28435700  0.68578800  0.18848000  1.0
  C  C108  1  0.14697000  0.40381500  0.90134000  1.0
  C  C109  1  0.24563000  0.59618500  0.09866000  1.0
  C  C116  1  0.02946800  0.45231100  0.95170000  1.0
  C  C117  1  0.07776800  0.54768900  0.04830000  1.0
  C  C120  1  0.88127700  0.39891400  0.91052000  1.0
  C  C121  1  0.97075700  0.60108600  0.08948000  1.0
  C  C128  1  0.83197700  0.30951200  0.81752000  1.0
  C  C129  1  0.01445700  0.69048800  0.18248000  1.0
  Ce  Ce0  1  0.95861265  0.99498700  0.45346230  1.0
  Ce  Ce1  1  0.50515035  0.00501300  0.54653770  1.0
  H  H16  1  0.77520000  0.20090000  0.33280000  1.0
  H  H17  1  0.44240000  0.79910000  0.66720000  1.0
  H  H24  1  0.77220000  0.36020000  0.31900000  1.0
  H  H25  1  0.45320000  0.63980000  0.68100000  1.0
  H  H36  1  0.44920000  0.44310000  0.46680000  1.0
  H  H37  1  0.98240000  0.55690000  0.53320000  1.0
  H  H44  1  0.45230000  0.28670000  0.48020000  1.0
  H  H45  1  0.97210000  0.71330000  0.51980000  1.0
  H  H56  1  0.67770000  0.46930000  0.25680000  1.0
  H  H57  1  0.42090000  0.53070000  0.74320000  1.0
  H  H64  1  0.71770000  0.63640000  0.26080000  1.0
  H  H65  1  0.45690000  0.36360000  0.73920000  1.0
  H  H76  1  0.58800000  0.76460000  0.51300000  1.0
  H  H77  1  0.07500000  0.23540000  0.48700000  1.0
  H  H84  1  0.56950000  0.60450000  0.51780000  1.0
  H  H85  1  0.05170000  0.39550000  0.48220000  1.0
  H  H104  1  0.17060000  0.28470000  0.77880000  1.0
  H  H105  1  0.39180000  0.71530000  0.22120000  1.0
  H  H112  1  0.25390000  0.43340000  0.93000000  1.0
  H  H113  1  0.32390000  0.56660000  0.07000000  1.0
  H  H124  1  0.80800000  0.42280000  0.94600000  1.0
  H  H125  1  0.86200000  0.57720000  0.05400000  1.0
  H  H132  1  0.72490000  0.27890000  0.78860000  1.0
  H  H133  1  0.93630000  0.72110000  0.21140000  1.0
  O  O144  1  0.73795000  0.08547000  0.41448000  1.0
  O  O145  1  0.32347000  0.91453000  0.58552000  1.0
  O  O148  1  0.50935000  0.10357000  0.44828000  1.0
  O  O149  1  0.06107000  0.89643000  0.55172000  1.0
  O  O152  1  0.70904000  0.90246000  0.47666000  1.0
  O  O153  1  0.23238000  0.09754000  0.52334000  1.0
  O  O156  1  0.76254100  0.82837000  0.33186000  1.0
  O  O157  1  0.43068100  0.17163000  0.66814000  1.0
  O  O160  1  0.99134100  0.13107000  0.62646000  1.0
  O  O161  1  0.36488100  0.86893000  0.37354000  1.0
  O  O164  1  0.75125300  0.12289000  0.63908000  1.0
  O  O165  1  0.11217300  0.87711000  0.36092000  1.0
