# generated using pymatgen
data_CeH14(C11O4)2
_symmetry_space_group_name_H-M   'P 1'
_cell_length_a   28.91280000
_cell_length_b   8.78920000
_cell_length_c   14.25740000
_cell_angle_alpha   90.00000000
_cell_angle_beta   116.14170000
_cell_angle_gamma   90.00000000
_symmetry_Int_Tables_number   1
_chemical_formula_structural   CeH14(C11O4)2
_chemical_formula_sum   'Ce4 H56 C88 O32'
_cell_volume   3252.47911944
_cell_formula_units_Z   4
loop_
 _symmetry_equiv_pos_site_id
 _symmetry_equiv_pos_as_xyz
  1  'x, y, z'
loop_
 _atom_site_type_symbol
 _atom_site_label
 _atom_site_symmetry_multiplicity
 _atom_site_fract_x
 _atom_site_fract_y
 _atom_site_fract_z
 _atom_site_occupancy
  Ce  Ce0  1  0.22673115  0.73188150  0.99498700  1
  Ce  Ce1  1  0.77326885  0.73188150  0.00501300  1
  Ce  Ce2  1  0.72673115  0.23188150  0.99498700  1
  Ce  Ce3  1  0.27326885  0.23188150  0.00501300  1
  C  C4  1  0.21315000  0.40861500  0.13281000  1
  C  C5  1  0.78685000  0.40861500  0.86719000  1
  C  C6  1  0.71315000  0.90861500  0.13281000  1
  C  C7  1  0.28685000  0.90861500  0.86719000  1
  C  C8  1  0.20665000  0.40971400  0.23199000  1
  C  C9  1  0.79335000  0.40971400  0.76801000  1
  C  C10  1  0.70665000  0.90971400  0.23199000  1
  C  C11  1  0.29335000  0.90971400  0.76801000  1
  C  C12  1  0.18065000  0.53141500  0.24981000  1
  C  C13  1  0.81935000  0.53141500  0.75019000  1
  C  C14  1  0.68065000  0.03141500  0.24981000  1
  C  C15  1  0.31935000  0.03141500  0.75019000  1
  H  H16  1  0.16640000  0.60880000  0.20090000  1
  H  H17  1  0.83360000  0.60880000  0.79910000  1
  H  H18  1  0.66640000  0.10880000  0.20090000  1
  H  H19  1  0.33360000  0.10880000  0.79910000  1
  C  C20  1  0.17655000  0.53261500  0.34609000  1
  C  C21  1  0.82345000  0.53261500  0.65391000  1
  C  C22  1  0.67655000  0.03261500  0.34609000  1
  C  C23  1  0.32345000  0.03261500  0.65391000  1
  H  H24  1  0.15950000  0.61270000  0.36020000  1
  H  H25  1  0.84050000  0.61270000  0.63980000  1
  H  H26  1  0.65950000  0.11270000  0.36020000  1
  H  H27  1  0.34050000  0.11270000  0.63980000  1
  C  C28  1  0.19715000  0.41781500  0.41831000  1
  C  C29  1  0.80285000  0.41781500  0.58169000  1
  C  C30  1  0.69715000  0.91781500  0.41831000  1
  C  C31  1  0.30285000  0.91781500  0.58169000  1
  C  C32  1  0.22057000  0.29611900  0.39621200  1
  C  C33  1  0.77943000  0.29611900  0.60378800  1
  C  C34  1  0.72057000  0.79611900  0.39621200  1
  C  C35  1  0.27943000  0.79611900  0.60378800  1
  H  H36  1  0.23340000  0.21580000  0.44310000  1
  H  H37  1  0.76660000  0.21580000  0.55690000  1
  H  H38  1  0.73340000  0.71580000  0.44310000  1
  H  H39  1  0.26660000  0.71580000  0.55690000  1
  C  C40  1  0.22457000  0.29501800  0.30181100  1
  C  C41  1  0.77543000  0.29501800  0.69818900  1
  C  C42  1  0.72457000  0.79501800  0.30181100  1
  C  C43  1  0.27543000  0.79501800  0.69818900  1
  H  H44  1  0.24010000  0.21220000  0.28670000  1
  H  H45  1  0.75990000  0.21220000  0.71330000  1
  H  H46  1  0.74010000  0.71220000  0.28670000  1
  H  H47  1  0.25990000  0.71220000  0.71330000  1
  C  C48  1  0.19515000  0.42781500  0.52259000  1
  C  C49  1  0.80485000  0.42781500  0.47741000  1
  C  C50  1  0.69515000  0.92781500  0.52259000  1
  C  C51  1  0.30485000  0.92781500  0.47741000  1
  C  C52  1  0.15525000  0.50971700  0.52919000  1
  C  C53  1  0.84475000  0.50971700  0.47081000  1
  C  C54  1  0.65525000  0.00971700  0.52919000  1
  C  C55  1  0.34475000  0.00971700  0.47081000  1
  H  H56  1  0.12840000  0.54930000  0.46930000  1
  H  H57  1  0.87160000  0.54930000  0.53070000  1
  H  H58  1  0.62840000  0.04930000  0.46930000  1
  H  H59  1  0.37160000  0.04930000  0.53070000  1
  C  C60  1  0.15635000  0.53161600  0.63019000  1
  C  C61  1  0.84365000  0.53161600  0.36981000  1
  C  C62  1  0.65635000  0.03161600  0.63019000  1
  C  C63  1  0.34365000  0.03161600  0.36981000  1
  H  H64  1  0.13040000  0.58730000  0.63640000  1
  H  H65  1  0.86960000  0.58730000  0.36360000  1
  H  H66  1  0.63040000  0.08730000  0.63640000  1
  H  H67  1  0.36960000  0.08730000  0.36360000  1
  C  C68  1  0.19495000  0.47091400  0.71559000  1
  C  C69  1  0.80505000  0.47091400  0.28441000  1
  C  C70  1  0.69495000  0.97091400  0.71559000  1
  C  C71  1  0.30505000  0.97091400  0.28441000  1
  C  C72  1  0.23206000  0.38111800  0.70631000  1
  C  C73  1  0.76794000  0.38111800  0.29369000  1
  C  C74  1  0.73206000  0.88111800  0.70631000  1
  C  C75  1  0.26794000  0.88111800  0.29369000  1
  H  H76  1  0.25650000  0.33150000  0.76460000  1
  H  H77  1  0.74350000  0.33150000  0.23540000  1
  H  H78  1  0.75650000  0.83150000  0.76460000  1
  H  H79  1  0.24350000  0.83150000  0.23540000  1
  C  C80  1  0.23256000  0.36511700  0.60941100  1
  C  C81  1  0.76744000  0.36511700  0.39058900  1
  C  C82  1  0.73256000  0.86511700  0.60941100  1
  C  C83  1  0.26744000  0.86511700  0.39058900  1
  H  H84  1  0.25890000  0.31060000  0.60450000  1
  H  H85  1  0.74110000  0.31060000  0.39550000  1
  H  H86  1  0.75890000  0.81060000  0.60450000  1
  H  H87  1  0.24110000  0.81060000  0.39550000  1
  C  C88  1  0.19914000  0.51221400  0.82289000  1
  C  C89  1  0.80086000  0.51221400  0.17711000  1
  C  C90  1  0.69914000  0.01221400  0.82289000  1
  C  C91  1  0.30086000  0.01221400  0.17711000  1
  C  C92  1  0.33544000  0.55531300  0.16669000  1
  C  C93  1  0.66456000  0.55531300  0.83331000  1
  C  C94  1  0.83544000  0.05531300  0.16669000  1
  C  C95  1  0.16456000  0.05531300  0.83331000  1
  C  C96  1  0.38355000  0.55781600  0.26571000  1
  C  C97  1  0.61645000  0.55781600  0.73429000  1
  C  C98  1  0.88355000  0.05781600  0.26571000  1
  C  C99  1  0.11645000  0.05781600  0.73429000  1
  C  C100  1  0.40576000  0.69011700  0.31421200  1
  C  C101  1  0.59424000  0.69011700  0.68578800  1
  C  C102  1  0.90576000  0.19011700  0.31421200  1
  C  C103  1  0.09424000  0.19011700  0.68578800  1
  H  H104  1  0.38940000  0.78120000  0.28470000  1
  H  H105  1  0.61060000  0.78120000  0.71530000  1
  H  H106  1  0.88940000  0.28120000  0.28470000  1
  H  H107  1  0.11060000  0.28120000  0.71530000  1
  C  C108  1  0.45067000  0.69630000  0.40381500  1
  C  C109  1  0.54933000  0.69630000  0.59618500  1
  C  C110  1  0.95067000  0.19630000  0.40381500  1
  C  C111  1  0.04933000  0.19630000  0.59618500  1
  H  H112  1  0.46500000  0.78890000  0.43340000  1
  H  H113  1  0.53500000  0.78890000  0.56660000  1
  H  H114  1  0.96500000  0.28890000  0.43340000  1
  H  H115  1  0.03500000  0.28890000  0.56660000  1
  C  C116  1  0.47585000  0.55361800  0.45231100  1
  C  C117  1  0.52415000  0.55361800  0.54768900  1
  C  C118  1  0.97585000  0.05361800  0.45231100  1
  C  C119  1  0.02415000  0.05361800  0.54768900  1
  C  C120  1  0.45526000  0.42601700  0.39891400  1
  C  C121  1  0.54474000  0.42601700  0.60108600  1
  C  C122  1  0.95526000  0.92601700  0.39891400  1
  C  C123  1  0.04474000  0.92601700  0.60108600  1
  H  H124  1  0.47300000  0.33500000  0.42280000  1
  H  H125  1  0.52700000  0.33500000  0.57720000  1
  H  H126  1  0.97300000  0.83500000  0.42280000  1
  H  H127  1  0.02700000  0.83500000  0.57720000  1
  C  C128  1  0.40876000  0.42321700  0.30951200  1
  C  C129  1  0.59124000  0.42321700  0.69048800  1
  C  C130  1  0.90876000  0.92321700  0.30951200  1
  C  C131  1  0.09124000  0.92321700  0.69048800  1
  H  H132  1  0.39430000  0.33060000  0.27890000  1
  H  H133  1  0.60570000  0.33060000  0.72110000  1
  H  H134  1  0.89430000  0.83060000  0.27890000  1
  H  H135  1  0.10570000  0.83060000  0.72110000  1
  O  O144  1  0.20724000  0.53071000  0.08547000  1
  O  O145  1  0.79276000  0.53071000  0.91453000  1
  O  O146  1  0.70724000  0.03071000  0.08547000  1
  O  O147  1  0.29276000  0.03071000  0.91453000  1
  O  O148  1  0.22414000  0.28521000  0.10357000  1
  O  O149  1  0.77586000  0.28521000  0.89643000  1
  O  O150  1  0.72414000  0.78521000  0.10357000  1
  O  O151  1  0.27586000  0.78521000  0.89643000  1
  O  O152  1  0.23833000  0.47071000  0.90246000  1
  O  O153  1  0.76167000  0.47071000  0.09754000  1
  O  O154  1  0.73833000  0.97071000  0.90246000  1
  O  O155  1  0.26167000  0.97071000  0.09754000  1
  O  O156  1  0.16593000  0.59661100  0.82837000  1
  O  O157  1  0.83407000  0.59661100  0.17163000  1
  O  O158  1  0.66593000  0.09661100  0.82837000  1
  O  O159  1  0.33407000  0.09661100  0.17163000  1
  O  O160  1  0.31323000  0.67811100  0.13107000  1
  O  O161  1  0.68677000  0.67811100  0.86893000  1
  O  O162  1  0.81323000  0.17811100  0.13107000  1
  O  O163  1  0.18677000  0.17811100  0.86893000  1
  O  O164  1  0.31954000  0.43171300  0.12289000  1
  O  O165  1  0.68046000  0.43171300  0.87711000  1
  O  O166  1  0.81954000  0.93171300  0.12289000  1
  O  O167  1  0.18046000  0.93171300  0.87711000  1
