# generated using pymatgen
data_GaH3C4O9
_symmetry_space_group_name_H-M   'P 1'
_cell_length_a   6.84041000
_cell_length_b   12.13320000
_cell_length_c   12.31520000
_cell_angle_alpha   90.00000000
_cell_angle_beta   94.85517000
_cell_angle_gamma   90.00000000
_symmetry_Int_Tables_number   1
_chemical_formula_structural   GaH3C4O9
_chemical_formula_sum   'Ga4 H12 C16 O36'
_cell_volume   1018.44558861
_cell_formula_units_Z   4
loop_
 _symmetry_equiv_pos_site_id
 _symmetry_equiv_pos_as_xyz
  1  'x, y, z'
loop_
 _atom_site_type_symbol
 _atom_site_label
 _atom_site_symmetry_multiplicity
 _atom_site_fract_x
 _atom_site_fract_y
 _atom_site_fract_z
 _atom_site_occupancy
  Ga  Ga0  1  0.50000000  0.00000000  0.50000000  1
  Ga  Ga1  1  0.00000000  0.00000000  0.50000000  1
  Ga  Ga2  1  0.00000000  0.50000000  0.00000000  1
  Ga  Ga3  1  0.50000000  0.50000000  0.00000000  1
  O  O4  1  0.57130000  0.12588000  0.41398000  1
  O  O5  1  0.92870000  0.12588000  0.58602000  1
  O  O6  1  0.07130000  0.62588000  0.91398000  1
  O  O7  1  0.42870000  0.62588000  0.08602000  1
  O  O8  1  0.42870000  0.87412000  0.58602000  1
  O  O9  1  0.07130000  0.87412000  0.41398000  1
  O  O10  1  0.92870000  0.37412000  0.08602000  1
  O  O11  1  0.57130000  0.37412000  0.91398000  1
  H  H12  1  0.25000000  0.15020000  0.50000000  1
  H  H13  1  0.75000000  0.65020000  0.00000000  1
  H  H14  1  0.75000000  0.84980000  0.50000000  1
  H  H15  1  0.25000000  0.34980000  0.00000000  1
  O  O16  1  0.87830000  0.09168000  0.36188000  1
  O  O17  1  0.62170000  0.09168000  0.63812000  1
  O  O18  1  0.37830000  0.59168000  0.86188000  1
  O  O19  1  0.12170000  0.59168000  0.13812000  1
  O  O20  1  0.12170000  0.90832000  0.63812000  1
  O  O21  1  0.37830000  0.90832000  0.36188000  1
  O  O22  1  0.62170000  0.40832000  0.13812000  1
  O  O23  1  0.87830000  0.40832000  0.86188000  1
  O  O24  1  0.25000000  0.07520000  0.50000000  1
  O  O25  1  0.75000000  0.57520000  0.00000000  1
  O  O26  1  0.75000000  0.92480000  0.50000000  1
  O  O27  1  0.25000000  0.42480000  0.00000000  1
  C  C28  1  0.71230000  0.13968000  0.35428000  1
  C  C29  1  0.78770000  0.13968000  0.64572000  1
  C  C30  1  0.21230000  0.63968000  0.85428000  1
  C  C31  1  0.28770000  0.63968000  0.14572000  1
  C  C32  1  0.28770000  0.86032000  0.64572000  1
  C  C33  1  0.21230000  0.86032000  0.35428000  1
  C  C34  1  0.78770000  0.36032000  0.14572000  1
  C  C35  1  0.71230000  0.36032000  0.85428000  1
  C  C36  1  0.66330000  0.22348000  0.26998000  1
  C  C37  1  0.83670000  0.22348000  0.73002000  1
  C  C38  1  0.16330000  0.72348000  0.76998000  1
  C  C39  1  0.33670000  0.72348000  0.23002000  1
  C  C40  1  0.33670000  0.77652000  0.73002000  1
  C  C41  1  0.16330000  0.77652000  0.26998000  1
  C  C42  1  0.83670000  0.27652000  0.23002000  1
  C  C43  1  0.66330000  0.27652000  0.76998000  1
  H  H44  1  0.50830000  0.23638000  0.24488000  1
  H  H45  1  0.99170000  0.23638000  0.75512000  1
  H  H46  1  0.00830000  0.73638000  0.74488000  1
  H  H47  1  0.49170000  0.73638000  0.25512000  1
  H  H48  1  0.49170000  0.76362000  0.75512000  1
  H  H49  1  0.00830000  0.76362000  0.24488000  1
  H  H50  1  0.99170000  0.26362000  0.25512000  1
  H  H51  1  0.50830000  0.26362000  0.74488000  1
