# generated using pymatgen
data_AlH14C24N2O5
_symmetry_space_group_name_H-M   'P 1'
_cell_length_a   6.72407500
_cell_length_b   16.54957267
_cell_length_c   16.89130000
_cell_angle_alpha   90.00000000
_cell_angle_beta   90.00000000
_cell_angle_gamma   101.72079425
_symmetry_Int_Tables_number   1
_chemical_formula_structural   AlH14C24N2O5
_chemical_formula_sum   'Al2 H28 C48 N4 O10'
_cell_volume   1840.48066498
_cell_formula_units_Z   2
loop_
 _symmetry_equiv_pos_site_id
 _symmetry_equiv_pos_as_xyz
  1  'x, y, z'
loop_
 _atom_site_type_symbol
 _atom_site_label
 _atom_site_symmetry_multiplicity
 _atom_site_fract_x
 _atom_site_fract_y
 _atom_site_fract_z
 _atom_site_occupancy
  Al  Al1  1  0.000000  0.499998  1.000000  1
  Al  Al2  1  0.499999  0.499998  1.000000  1
  C  C3  1  0.466423  0.932854  0.330073  1
  C  C4  1  0.368785  0.737573  0.540651  1
  C  C5  1  0.392149  0.784302  0.708318  1
  C  C6  1  0.331420  0.662838  0.827693  1
  C  C7  1  0.300283  0.600566  0.893068  1
  C  C8  1  0.410888  0.821775  0.433107  1
  C  C9  1  0.424790  0.849587  0.354387  1
  C  C10  1  0.300283  0.600566  0.106932  1
  C  C11  1  0.410888  0.821775  0.566893  1
  C  C12  1  0.424790  0.849587  0.645613  1
  C  C13  1  0.466423  0.932854  0.669927  1
  C  C14  1  0.368785  0.737573  0.459349  1
  C  C15  1  0.392149  0.784302  0.291682  1
  C  C16  1  0.166632  0.693024  0.797286  1
  C  C17  1  0.331420  0.662838  0.172307  1
  C  C18  1  0.699718  0.399433  0.106934  1
  C  C19  1  0.196885  0.753087  0.738243  1
  C  C20  1  0.589113  0.178224  0.566892  1
  C  C21  1  0.575208  0.150409  0.645613  1
  C  C22  1  0.533569  0.067142  0.669926  1
  C  C23  1  0.631214  0.262425  0.459348  1
  C  C24  1  0.607852  0.215695  0.291682  1
  C  C25  1  0.668581  0.337161  0.172308  1
  C  C26  1  0.479028  0.958063  0.247119  1
  C  C27  1  0.520969  0.041935  0.247119  1
  C  C28  1  0.520969  0.041935  0.752881  1
  C  C29  1  0.479028  0.958063  0.752881  1
  C  C30  1  0.833368  0.306973  0.797286  1
  C  C31  1  0.526388  0.693023  0.202714  1
  C  C32  1  0.556198  0.753085  0.261757  1
  C  C33  1  0.803115  0.246910  0.738243  1
  C  C34  1  0.473613  0.306973  0.202714  1
  C  C35  1  0.443802  0.246911  0.261757  1
  C  C36  1  0.166632  0.693024  0.202714  1
  C  C37  1  0.196885  0.753087  0.261757  1
  C  C38  1  0.833368  0.306973  0.202714  1
  C  C39  1  0.803115  0.246910  0.261757  1
  C  C40  1  0.473613  0.306973  0.797287  1
  C  C41  1  0.443802  0.246911  0.738243  1
  C  C42  1  0.526388  0.693023  0.797286  1
  C  C43  1  0.556198  0.753085  0.738243  1
  C  C44  1  0.699718  0.399433  0.893066  1
  C  C45  1  0.589113  0.178224  0.433108  1
  C  C46  1  0.575208  0.150409  0.354387  1
  C  C47  1  0.533569  0.067142  0.330074  1
  C  C48  1  0.631214  0.262425  0.540652  1
  C  C49  1  0.607852  0.215695  0.708318  1
  C  C50  1  0.668581  0.337161  0.827692  1
  H  H51  1  0.931270  0.223134  0.714923  1
  H  H52  1  0.342276  0.684553  0.579827  1
  H  H53  1  0.342276  0.684553  0.420173  1
  H  H54  1  0.657723  0.315445  0.420173  1
  H  H55  1  0.015540  0.668824  0.820945  1
  H  H56  1  0.068729  0.776863  0.714925  1
  H  H57  1  0.195350  0.390698  0.000000  1
  H  H58  1  0.804645  0.609297  0.000000  1
  H  H59  1  0.533430  0.066859  0.500000  1
  H  H60  1  0.466570  0.933141  0.500000  1
  H  H61  1  0.458441  0.916887  0.196386  1
  H  H62  1  0.541554  0.083108  0.196385  1
  H  H63  1  0.541554  0.083108  0.803615  1
  H  H64  1  0.458441  0.916887  0.803614  1
  H  H65  1  0.653284  0.668822  0.179055  1
  H  H66  1  0.708128  0.776863  0.285077  1
  H  H67  1  0.346715  0.331176  0.179056  1
  H  H68  1  0.291871  0.223133  0.285076  1
  H  H69  1  0.984466  0.331177  0.820944  1
  H  H70  1  0.015540  0.668824  0.179055  1
  H  H71  1  0.068729  0.776863  0.285075  1
  H  H72  1  0.984466  0.331177  0.179056  1
  H  H73  1  0.931270  0.223134  0.285077  1
  H  H74  1  0.346715  0.331176  0.820944  1
  H  H75  1  0.291871  0.223133  0.714924  1
  H  H76  1  0.653284  0.668822  0.820945  1
  H  H77  1  0.708128  0.776863  0.714923  1
  H  H78  1  0.657723  0.315445  0.579827  1
  N  N79  1  0.499998  0.999998  0.379350  1
  N  N80  1  0.499998  0.999998  0.620650  1
  N  N81  1  0.564904  0.129808  0.500000  1
  N  N82  1  0.435095  0.870191  0.500000  1
  O  O83  1  0.119676  0.576914  0.081001  1
  O  O84  1  0.880326  0.423086  0.081003  1
  O  O85  1  0.225211  0.450420  0.000000  1
  O  O86  1  0.774788  0.549575  0.000000  1
  O  O87  1  0.542765  0.423085  0.918998  1
  O  O88  1  0.457235  0.576913  0.918999  1
  O  O89  1  0.880326  0.423086  0.918997  1
  O  O90  1  0.119676  0.576914  0.918999  1
  O  O91  1  0.457235  0.576913  0.081001  1
  O  O92  1  0.542765  0.423085  0.081002  1
