# generated using pymatgen
data_AlH12C22O5
_symmetry_space_group_name_H-M   'P 1'
_cell_length_a   6.70927500
_cell_length_b   15.85555000
_cell_length_c   30.38710000
_cell_angle_alpha   90.00000000
_cell_angle_beta   91.46530000
_cell_angle_gamma   90.00000000
_symmetry_Int_Tables_number   1
_chemical_formula_structural   AlH12C22O5
_chemical_formula_sum   'Al4 H48 C88 O20'
_cell_volume   3231.49970094
_cell_formula_units_Z   4
loop_
 _symmetry_equiv_pos_site_id
 _symmetry_equiv_pos_as_xyz
  1  'x, y, z'
loop_
 _atom_site_type_symbol
 _atom_site_label
 _atom_site_symmetry_multiplicity
 _atom_site_fract_x
 _atom_site_fract_y
 _atom_site_fract_z
 _atom_site_occupancy
  Al  Al1  1  0.729263  0.000000  0.251446  1
  Al  Al2  1  0.253906  1.000000  0.749952  1
  Al  Al3  1  0.753866  1.000000  0.749950  1
  Al  Al4  1  0.228966  0.000000  0.248006  1
  C  C5  1  0.841810  0.714527  0.615845  1
  C  C6  1  0.476250  0.882454  0.198642  1
  C  C7  1  0.503815  0.655212  0.022513  1
  C  C8  1  0.505059  0.577354  0.093935  1
  C  C9  1  0.502113  0.578375  0.047200  1
  C  C10  1  0.480797  0.803619  0.171788  1
  C  C11  1  0.997132  0.882967  0.698601  1
  C  C12  1  0.010343  0.655012  0.522593  1
  C  C13  1  0.999130  0.656175  0.620299  1
  C  C14  1  0.001756  0.577362  0.593927  1
  C  C15  1  0.999841  0.578302  0.547198  1
  C  C16  1  0.996182  0.804553  0.671414  1
  C  C17  1  0.510905  0.882656  0.801198  1
  C  C18  1  0.505127  0.655206  0.977592  1
  C  C19  1  0.505384  0.577387  0.906183  1
  C  C20  1  0.507137  0.578346  0.952912  1
  C  C21  1  0.512313  0.804028  0.828279  1
  C  C22  1  0.988267  0.882767  0.301063  1
  C  C23  1  0.012317  0.655002  0.477687  1
  C  C24  1  0.008312  0.577432  0.406152  1
  C  C25  1  0.003402  0.578344  0.452877  1
  C  C26  1  0.994208  0.804492  0.328444  1
  C  C27  1  0.510905  0.117344  0.801198  1
  C  C28  1  0.505127  0.344794  0.977592  1
  C  C29  1  0.505384  0.422613  0.906183  1
  C  C30  1  0.507137  0.421654  0.952912  1
  C  C31  1  0.512313  0.195972  0.828279  1
  C  C32  1  0.988267  0.117233  0.301063  1
  C  C33  1  0.012317  0.344998  0.477687  1
  C  C34  1  0.008312  0.422568  0.406152  1
  C  C35  1  0.003402  0.421656  0.452877  1
  C  C36  1  0.994208  0.195508  0.328444  1
  C  C37  1  0.476250  0.117546  0.198642  1
  C  C38  1  0.503815  0.344788  0.022513  1
  C  C39  1  0.671816  0.785998  0.857499  1
  C  C40  1  0.505059  0.422646  0.093935  1
  C  C41  1  0.502113  0.421625  0.047200  1
  C  C42  1  0.480797  0.196381  0.171788  1
  C  C43  1  0.997132  0.117033  0.698601  1
  C  C44  1  0.010343  0.344988  0.522593  1
  C  C45  1  0.001756  0.422638  0.593927  1
  C  C46  1  0.999841  0.421698  0.547198  1
  C  C47  1  0.996182  0.195447  0.671414  1
  C  C48  1  0.503054  0.500000  0.023644  1
  C  C49  1  0.511468  0.500000  0.116036  1
  C  C50  1  0.998789  0.500000  0.523602  1
  C  C51  1  0.006349  0.500000  0.616041  1
  C  C52  1  0.505892  0.500000  0.976472  1
  C  C53  1  0.499981  0.500000  0.884080  1
  C  C54  1  0.000531  0.500000  0.476408  1
  C  C55  1  0.014390  0.500000  0.384135  1
  C  C56  1  0.668144  0.713647  0.883527  1
  C  C57  1  0.508994  0.656049  0.879648  1
  C  C58  1  0.325584  0.784407  0.141660  1
  C  C59  1  0.150258  0.746439  0.324266  1
  C  C60  1  0.152770  0.672369  0.349018  1
  C  C61  1  0.352777  0.252794  0.824307  1
  C  C62  1  0.353492  0.326805  0.849035  1
  C  C63  1  0.842419  0.212158  0.358111  1
  C  C64  1  0.849357  0.284631  0.383996  1
  C  C65  1  0.004206  0.343786  0.379768  1
  C  C66  1  0.642415  0.251991  0.176685  1
  C  C67  1  0.648147  0.325917  0.151935  1
  C  C68  1  0.335638  0.712130  0.115742  1
  C  C69  1  0.154362  0.252831  0.675833  1
  C  C70  1  0.153374  0.327041  0.651265  1
  C  C71  1  0.671816  0.214002  0.857499  1
  C  C72  1  0.668144  0.286353  0.883527  1
  C  C73  1  0.508994  0.343951  0.879648  1
  C  C74  1  0.497037  0.655862  0.120439  1
  C  C75  1  0.150258  0.253561  0.324266  1
  C  C76  1  0.152770  0.327631  0.349018  1
  C  C77  1  0.325584  0.215593  0.141660  1
  C  C78  1  0.335638  0.287870  0.115742  1
  C  C79  1  0.497037  0.344138  0.120439  1
  C  C80  1  0.838106  0.212964  0.641739  1
  C  C81  1  0.841810  0.285473  0.615845  1
  C  C82  1  0.999130  0.343825  0.620299  1
  C  C83  1  0.642415  0.748009  0.176685  1
  C  C84  1  0.648147  0.674083  0.151935  1
  C  C85  1  0.154362  0.747169  0.675833  1
  C  C86  1  0.153374  0.672959  0.651265  1
  C  C87  1  0.352777  0.747206  0.824307  1
  C  C88  1  0.838106  0.787036  0.641739  1
  C  C89  1  0.353492  0.673195  0.849035  1
  C  C90  1  0.842419  0.787842  0.358111  1
  C  C91  1  0.849357  0.715369  0.383996  1
  C  C92  1  0.004206  0.656214  0.379768  1
  H  H93  1  0.963162  0.000000  0.191461  1
  H  H94  1  0.504858  0.715000  0.040187  1
  H  H95  1  0.021648  0.714591  0.540353  1
  H  H96  1  0.504496  0.714971  0.959896  1
  H  H97  1  0.275609  0.628020  0.655350  1
  H  H98  1  0.025315  0.714574  0.460135  1
  H  H99  1  0.504496  0.285029  0.959896  1
  H  H100  1  0.025315  0.285426  0.460135  1
  H  H101  1  0.504858  0.285000  0.040187  1
  H  H102  1  0.021648  0.285409  0.540353  1
  H  H103  1  0.797549  0.829435  0.859947  1
  H  H104  1  0.510923  0.500000  0.151962  1
  H  H105  1  0.005062  0.500000  0.651974  1
  H  H106  1  0.500841  0.500000  0.848147  1
  H  H107  1  0.014915  0.500000  0.348196  1
  H  H108  1  0.230066  0.628723  0.845412  1
  H  H109  1  0.267965  0.759541  0.301153  1
  H  H110  1  0.731706  0.703371  0.407314  1
  H  H111  1  0.228982  0.238432  0.801616  1
  H  H112  1  0.791423  0.299280  0.906658  1
  H  H113  1  0.198371  0.826901  0.138441  1
  H  H114  1  0.719685  0.167592  0.360779  1
  H  H115  1  0.273060  0.373134  0.345124  1
  H  H116  1  0.762592  0.236836  0.200172  1
  H  H117  1  0.215669  0.301851  0.091948  1
  H  H118  1  0.277283  0.238966  0.698850  1
  H  H119  1  0.719716  0.297988  0.592344  1
  H  H120  1  0.797549  0.170565  0.859947  1
  H  H121  1  0.230066  0.371277  0.845412  1
  H  H122  1  0.267965  0.240459  0.301153  1
  H  H123  1  0.731706  0.296629  0.407314  1
  H  H124  1  0.198371  0.173099  0.138441  1
  H  H125  1  0.773089  0.630583  0.156338  1
  H  H126  1  0.773089  0.369417  0.156338  1
  H  H127  1  0.713390  0.169079  0.638875  1
  H  H128  1  0.275609  0.371980  0.655350  1
  H  H129  1  0.762592  0.763164  0.200172  1
  H  H130  1  0.215669  0.698149  0.091948  1
  H  H131  1  0.277283  0.761034  0.698850  1
  H  H132  1  0.719716  0.702012  0.592344  1
  H  H133  1  0.228982  0.761568  0.801616  1
  H  H134  1  0.791423  0.700720  0.906658  1
  H  H135  1  0.719685  0.832408  0.360779  1
  H  H136  1  0.273060  0.626866  0.345124  1
  H  H137  1  0.713390  0.830921  0.638875  1
  H  H138  1  0.476130  0.000000  0.308103  1
  H  H139  1  0.009910  0.000000  0.808274  1
  H  H140  1  0.497691  0.000000  0.691697  1
  O  O141  1  0.644670  0.911836  0.211472  1
  O  O142  1  0.340458  0.912513  0.790188  1
  O  O143  1  0.816970  0.914924  0.292942  1
  O  O144  1  0.679415  0.086283  0.791478  1
  O  O145  1  0.154578  0.088746  0.288205  1
  O  O146  1  0.306168  0.085660  0.206378  1
  O  O147  1  0.828551  0.086081  0.708333  1
  O  O148  1  0.340458  0.087487  0.790188  1
  O  O149  1  0.816970  0.085076  0.292942  1
  O  O150  1  0.644670  0.088164  0.211472  1
  O  O151  1  0.167581  0.087302  0.709737  1
  O  O152  1  0.306168  0.914340  0.206378  1
  O  O153  1  0.167581  0.912698  0.709737  1
  O  O154  1  0.828551  0.913919  0.708333  1
  O  O155  1  0.679415  0.913717  0.791478  1
  O  O156  1  0.154578  0.911254  0.288205  1
  O  O157  1  0.479059  0.000000  0.276246  1
  O  O158  1  0.007019  0.000000  0.776390  1
  O  O159  1  0.500813  0.000000  0.723583  1
  O  O160  1  0.973297  0.000000  0.223312  1
