# generated using pymatgen
data_InH9C16O5F4
_symmetry_space_group_name_H-M   'P 1'
_cell_length_a   16.97891300
_cell_length_b   21.61220000
_cell_length_c   13.89051100
_cell_angle_alpha   90.00000000
_cell_angle_beta   90.00000000
_cell_angle_gamma   90.00000000
_symmetry_Int_Tables_number   1
_chemical_formula_structural   InH9C16O5F4
_chemical_formula_sum   'In12 H108 C192 O60 F48'
_cell_volume   5097.14611885
_cell_formula_units_Z   12
loop_
 _symmetry_equiv_pos_site_id
 _symmetry_equiv_pos_as_xyz
  1  'x, y, z'
loop_
 _atom_site_type_symbol
 _atom_site_label
 _atom_site_symmetry_multiplicity
 _atom_site_fract_x
 _atom_site_fract_y
 _atom_site_fract_z
 _atom_site_occupancy
  C  C0  1  0.35806000  0.16845000  0.61939000  1
  C  C1  1  0.14194000  0.83155000  0.61939000  1
  C  C2  1  0.35806000  0.33155000  0.88061000  1
  C  C3  1  0.14194000  0.66845000  0.88061000  1
  C  C4  1  0.64194000  0.83155000  0.38061000  1
  C  C5  1  0.85806000  0.16845000  0.38061000  1
  C  C6  1  0.64194000  0.66845000  0.11939000  1
  C  C7  1  0.85806000  0.33155000  0.11939000  1
  C  C8  1  0.42566000  0.16615000  0.54788000  1
  C  C9  1  0.07434000  0.83385000  0.54788000  1
  C  C10  1  0.42566000  0.33385000  0.95212000  1
  C  C11  1  0.07434000  0.66615000  0.95212000  1
  C  C12  1  0.57434000  0.83385000  0.45212000  1
  C  C13  1  0.92566000  0.16615000  0.45212000  1
  C  C14  1  0.57434000  0.66615000  0.04788000  1
  C  C15  1  0.92566000  0.33385000  0.04788000  1
  C  C16  1  0.43927000  0.21435000  0.48401100  1
  C  C17  1  0.06073000  0.78565000  0.48401100  1
  C  C18  1  0.43927000  0.28565000  0.01598900  1
  C  C19  1  0.06073000  0.71435000  0.01598900  1
  C  C20  1  0.56073000  0.78565000  0.51598900  1
  C  C21  1  0.93927000  0.21435000  0.51598900  1
  C  C22  1  0.56073000  0.71435000  0.98401100  1
  C  C23  1  0.93927000  0.28565000  0.98401100  1
  C  C24  1  0.50377000  0.21305000  0.42111000  1
  C  C25  1  0.00000000  0.78695000  0.42111000  1
  C  C26  1  0.50377000  0.28695000  0.07889000  1
  C  C27  1  0.00000000  0.71305000  0.07889000  1
  C  C28  1  0.49623000  0.78695000  0.57889000  1
  C  C29  1  0.00377000  0.21305000  0.57889000  1
  C  C30  1  0.49623000  0.71305000  0.92111000  1
  C  C31  1  0.00377000  0.28695000  0.92111000  1
  C  C32  1  0.55576000  0.16525000  0.42158000  1
  C  C33  1  0.94424000  0.83475000  0.42158000  1
  C  C34  1  0.55576000  0.33475000  0.07842000  1
  C  C35  1  0.94424000  0.66525000  0.07842000  1
  C  C36  1  0.44424000  0.83475000  0.57842000  1
  C  C37  1  0.05576000  0.16525000  0.57842000  1
  C  C38  1  0.44424000  0.66525000  0.92158000  1
  C  C39  1  0.05576000  0.33475000  0.92158000  1
  C  C40  1  0.54267000  0.11616000  0.48501100  1
  C  C41  1  0.95733000  0.88384000  0.48501100  1
  C  C42  1  0.54267000  0.38384000  0.01498900  1
  C  C43  1  0.95733000  0.61616000  0.01498900  1
  C  C44  1  0.45733000  0.88384000  0.51498900  1
  C  C45  1  0.04267000  0.11616000  0.51498900  1
  C  C46  1  0.45733000  0.61616000  0.98501100  1
  C  C47  1  0.04267000  0.38384000  0.98501100  1
  C  C48  1  0.47778000  0.11726000  0.54831100  1
  C  C49  1  0.02222000  0.88274000  0.54831100  1
  C  C50  1  0.47778000  0.38274000  0.95168900  1
  C  C51  1  0.02222000  0.61726000  0.95168900  1
  C  C52  1  0.52222000  0.88274000  0.45168900  1
  C  C53  1  0.97778000  0.11726000  0.45168900  1
  C  C54  1  0.52222000  0.61726000  0.04831100  1
  C  C55  1  0.97778000  0.38274000  0.04831100  1
  C  C56  1  0.62716000  0.16475000  0.35758000  1
  C  C57  1  0.87284000  0.83525000  0.35758000  1
  C  C58  1  0.62716000  0.33525000  0.14242000  1
  C  C59  1  0.87284000  0.66475000  0.14242000  1
  C  C60  1  0.37284000  0.83525000  0.64242000  1
  C  C61  1  0.12716000  0.16475000  0.64242000  1
  C  C62  1  0.37284000  0.66475000  0.85758000  1
  C  C63  1  0.12716000  0.33525000  0.85758000  1
  C  C64  1  0.13517000  0.00000000  0.87149000  1
  C  C65  1  0.36483000  0.00335000  0.87149000  1
  C  C66  1  0.13517000  0.50335000  0.62851000  1
  C  C67  1  0.36483000  0.49665000  0.62851000  1
  C  C68  1  0.86483000  0.00335000  0.12851000  1
  C  C69  1  0.63517000  0.00000000  0.12851000  1
  C  C70  1  0.86483000  0.49665000  0.37149000  1
  C  C71  1  0.63517000  0.50335000  0.37149000  1
  C  C72  1  0.06587000  0.00000000  0.93839000  1
  C  C73  1  0.43413000  0.00195000  0.93839000  1
  C  C74  1  0.06587000  0.50195000  0.56161000  1
  C  C75  1  0.43413000  0.49805000  0.56161000  1
  C  C76  1  0.93413000  0.00195000  0.06161000  1
  C  C77  1  0.56587000  0.00000000  0.06161000  1
  C  C78  1  0.93413000  0.49805000  0.43839000  1
  C  C79  1  0.56587000  0.50195000  0.43839000  1
  C  C80  1  0.01768000  0.04916000  0.94061000  1
  C  C81  1  0.48232000  0.95084000  0.94061000  1
  C  C82  1  0.01768000  0.45084000  0.55939000  1
  C  C83  1  0.48232000  0.54916000  0.55939000  1
  C  C84  1  0.98232000  0.95084000  0.05939000  1
  C  C85  1  0.51768000  0.04916000  0.05939000  1
  C  C86  1  0.98232000  0.54916000  0.44061000  1
  C  C87  1  0.51768000  0.45084000  0.44061000  1
  C  C88  1  0.95112000  0.05016000  0.00161200  1
  C  C89  1  0.54888000  0.94984000  0.00161200  1
  C  C90  1  0.95112000  0.44984000  0.49838800  1
  C  C91  1  0.54888000  0.55016000  0.49838800  1
  C  C92  1  0.04888000  0.94984000  0.00000000  1
  C  C93  1  0.45112000  0.05016000  0.00000000  1
  C  C94  1  0.04888000  0.55016000  0.50161200  1
  C  C95  1  0.45112000  0.44984000  0.50161200  1
  F  F96  1  0.38965000  0.26293000  0.47876000  1
  F  F97  1  0.11035000  0.73707000  0.47876000  1
  F  F98  1  0.38965000  0.23707000  0.02124000  1
  F  F99  1  0.11035000  0.76293000  0.02124000  1
  F  F100  1  0.61035000  0.73707000  0.52124000  1
  F  F101  1  0.88965000  0.26293000  0.52124000  1
  F  F102  1  0.61035000  0.76293000  0.97876000  1
  F  F103  1  0.88965000  0.23707000  0.97876000  1
  F  F104  1  0.51175000  0.26143000  0.36126000  1
  F  F105  1  0.98825000  0.73857000  0.36126000  1
  F  F106  1  0.51175000  0.23857000  0.13874000  1
  F  F107  1  0.98825000  0.76143000  0.13874000  1
  F  F108  1  0.48825000  0.73857000  0.63874000  1
  F  F109  1  0.01175000  0.26143000  0.63874000  1
  F  F110  1  0.48825000  0.76143000  0.86126000  1
  F  F111  1  0.01175000  0.23857000  0.86126000  1
  F  F112  1  0.59155000  0.06733000  0.49177000  1
  F  F113  1  0.90845000  0.93267000  0.49177000  1
  F  F114  1  0.59155000  0.43267000  0.00823000  1
  F  F115  1  0.90845000  0.56733000  0.00823000  1
  F  F116  1  0.40845000  0.93267000  0.50823000  1
  F  F117  1  0.09155000  0.06733000  0.50823000  1
  F  F118  1  0.40845000  0.56733000  0.99177000  1
  F  F119  1  0.09155000  0.43267000  0.99177000  1
  F  F120  1  0.46925000  0.06833000  0.60837000  1
  F  F121  1  0.03075000  0.93167000  0.60837000  1
  F  F122  1  0.46925000  0.43167000  0.89163000  1
  F  F123  1  0.03075000  0.56833000  0.89163000  1
  F  F124  1  0.53075000  0.93167000  0.39163000  1
  F  F125  1  0.96925000  0.06833000  0.39163000  1
  F  F126  1  0.53075000  0.56833000  0.10837000  1
  F  F127  1  0.96925000  0.43167000  0.10837000  1
  F  F128  1  0.02846000  0.09684000  0.88108000  1
  F  F129  1  0.47154000  0.90316000  0.88108000  1
  F  F130  1  0.02846000  0.40316000  0.61892000  1
  F  F131  1  0.47154000  0.59684000  0.61892000  1
  F  F132  1  0.97154000  0.90316000  0.11892000  1
  F  F133  1  0.52846000  0.09684000  0.11892000  1
  F  F134  1  0.97154000  0.59684000  0.38108000  1
  F  F135  1  0.52846000  0.40316000  0.38108000  1
  F  F136  1  0.90425000  0.09994000  0.00000000  1
  F  F137  1  0.59575000  0.90006000  0.00000000  1
  F  F138  1  0.90425000  0.40006000  0.50353000  1
  F  F139  1  0.59575000  0.59994000  0.50353000  1
  F  F140  1  0.09575000  0.90006000  0.00353000  1
  F  F141  1  0.40425000  0.09994000  0.00353000  1
  F  F142  1  0.09575000  0.59994000  0.49647000  1
  F  F143  1  0.40425000  0.40006000  0.49647000  1
  In  In144  1  0.25044500  0.25000000  0.75000000  1
  In  In145  1  0.24955500  0.75000000  0.75000000  1
  In  In146  1  0.74955500  0.75000000  0.25000000  1
  In  In147  1  0.75044500  0.25000000  0.25000000  1
  In  In148  1  0.25003400  0.08327300  0.75091400  1
  In  In149  1  0.24996600  0.91672700  0.75091400  1
  In  In150  1  0.25003400  0.41672700  0.74908600  1
  In  In151  1  0.24996600  0.58327300  0.74908600  1
  In  In152  1  0.74996600  0.91672700  0.24908600  1
  In  In153  1  0.75003400  0.08327300  0.24908600  1
  In  In154  1  0.74996600  0.58327300  0.25091400  1
  In  In155  1  0.75003400  0.41672700  0.25091400  1
  O  O156  1  0.34455000  0.22014000  0.65377000  1
  O  O157  1  0.15545000  0.77986000  0.65377000  1
  O  O158  1  0.34455000  0.27986000  0.84623000  1
  O  O159  1  0.15545000  0.72014000  0.84623000  1
  O  O160  1  0.65545000  0.77986000  0.34623000  1
  O  O161  1  0.84455000  0.22014000  0.34623000  1
  O  O162  1  0.65545000  0.72014000  0.15377000  1
  O  O163  1  0.84455000  0.27986000  0.15377000  1
  O  O164  1  0.32445000  0.11814000  0.63766000  1
  O  O165  1  0.17555000  0.88186000  0.63766000  1
  O  O166  1  0.32445000  0.38186000  0.86234000  1
  O  O167  1  0.17555000  0.61814000  0.86234000  1
  O  O168  1  0.67555000  0.88186000  0.36234000  1
  O  O169  1  0.82445000  0.11814000  0.36234000  1
  O  O170  1  0.67555000  0.61814000  0.13766000  1
  O  O171  1  0.82445000  0.38186000  0.13766000  1
  O  O172  1  0.66275000  0.21514000  0.34477000  1
  O  O173  1  0.83725000  0.78486000  0.34477000  1
  O  O174  1  0.66275000  0.28486000  0.15523000  1
  O  O175  1  0.83725000  0.71514000  0.15523000  1
  O  O176  1  0.33725000  0.78486000  0.65523000  1
  O  O177  1  0.16275000  0.21514000  0.65523000  1
  O  O178  1  0.33725000  0.71514000  0.84477000  1
  O  O179  1  0.16275000  0.28486000  0.84477000  1
  O  O180  1  0.64565000  0.11274000  0.32297000  1
  O  O181  1  0.85435000  0.88726000  0.32297000  1
  O  O182  1  0.64565000  0.38726000  0.17703000  1
  O  O183  1  0.85435000  0.61274000  0.17703000  1
  O  O184  1  0.35435000  0.88726000  0.67703000  1
  O  O185  1  0.14565000  0.11274000  0.67703000  1
  O  O186  1  0.35435000  0.61274000  0.82297000  1
  O  O187  1  0.14565000  0.38726000  0.82297000  1
  O  O188  1  0.17305000  0.04534000  0.86196000  1
  O  O189  1  0.32695000  0.95466000  0.86196000  1
  O  O190  1  0.17305000  0.45466000  0.63804000  1
  O  O191  1  0.32695000  0.54534000  0.63804000  1
  O  O192  1  0.82695000  0.95466000  0.13804000  1
  O  O193  1  0.67305000  0.04534000  0.13804000  1
  O  O194  1  0.82695000  0.54534000  0.36196000  1
  O  O195  1  0.67305000  0.45466000  0.36196000  1
  O  O196  1  0.14835000  0.94507000  0.82966000  1
  O  O197  1  0.35165000  0.05493000  0.82966000  1
  O  O198  1  0.14835000  0.55493000  0.67034000  1
  O  O199  1  0.35165000  0.44507000  0.67034000  1
  O  O200  1  0.85165000  0.05493000  0.17034000  1
  O  O201  1  0.64835000  0.94507000  0.17034000  1
  O  O202  1  0.85165000  0.44507000  0.32966000  1
  O  O203  1  0.64835000  0.55493000  0.32966000  1
  O  O204  1  0.25465000  0.16673000  0.82675000  1
  O  O205  1  0.24535000  0.83327000  0.82675000  1
  O  O206  1  0.25465000  0.33327000  0.67325000  1
  O  O207  1  0.24535000  0.66673000  0.67325000  1
  O  O208  1  0.74535000  0.83327000  0.17325000  1
  O  O209  1  0.75465000  0.16673000  0.17325000  1
  O  O210  1  0.74535000  0.66673000  0.32675000  1
  O  O211  1  0.75465000  0.33327000  0.32675000  1
  H  H212  1  0.27860000  0.16697000  0.88030000  1
  H  H213  1  0.22140000  0.83303000  0.88030000  1
  H  H214  1  0.27860000  0.33303000  0.61970000  1
  H  H215  1  0.22140000  0.66697000  0.61970000  1
  H  H216  1  0.72140000  0.83303000  0.11970000  1
  H  H217  1  0.77860000  0.16697000  0.11970000  1
  H  H218  1  0.72140000  0.66697000  0.38030000  1
  H  H219  1  0.77860000  0.33303000  0.38030000  1
  O  O220  1  0.25000000  0.00000000  0.67527000  1
  O  O221  1  0.25000000  0.50000000  0.82473000  1
  O  O222  1  0.75000000  0.00000000  0.32473000  1
  O  O223  1  0.75000000  0.50000000  0.17527000  1
  H  H224  1  0.25000000  0.00000000  0.61571500  1
  H  H225  1  0.25000000  0.50000000  0.88428500  1
  H  H226  1  0.75000000  0.00000000  0.38428500  1
  H  H227  1  0.75000000  0.50000000  0.11571500  1
