# generated using pymatgen
data_Mn3H13C9NO13
_symmetry_space_group_name_H-M   'P 1'
_cell_length_a   11.70471800
_cell_length_b   10.09461300
_cell_length_c   18.55630000
_cell_angle_alpha   90.00000000
_cell_angle_beta   127.58520000
_cell_angle_gamma   90.00000000
_symmetry_Int_Tables_number   1
_chemical_formula_structural   Mn3H13C9NO13
_chemical_formula_sum   'Mn12 H52 C36 N4 O52'
_cell_volume   1737.45018458
_cell_formula_units_Z   4
loop_
 _symmetry_equiv_pos_site_id
 _symmetry_equiv_pos_as_xyz
  1  'x, y, z'
loop_
 _atom_site_type_symbol
 _atom_site_label
 _atom_site_symmetry_multiplicity
 _atom_site_fract_x
 _atom_site_fract_y
 _atom_site_fract_z
 _atom_site_occupancy
  Mn  Mn0  1  0.62592400  0.58529300  0.36948200  1
  Mn  Mn1  1  0.37407600  0.08529300  0.13051800  1
  Mn  Mn2  1  0.37407600  0.41470700  0.63051800  1
  Mn  Mn3  1  0.62592400  0.91470700  0.86948200  1
  Mn  Mn4  1  0.42216400  0.40195300  0.18289200  1
  Mn  Mn5  1  0.57783600  0.90195300  0.31710800  1
  Mn  Mn6  1  0.57783600  0.59804700  0.81710800  1
  Mn  Mn7  1  0.42216400  0.09804700  0.68289200  1
  Mn  Mn8  1  0.50000000  0.50000000  0.50000000  1
  Mn  Mn9  1  0.50000000  0.00000000  0.00000000  1
  Mn  Mn10  1  0.00000000  0.50000000  0.50000000  1
  Mn  Mn11  1  0.00000000  0.00000000  0.00000000  1
  O  O12  1  0.55658160  0.70932150  0.25167900  1
  O  O13  1  0.44341840  0.20932150  0.24832100  1
  O  O14  1  0.44341840  0.29067850  0.74832100  1
  O  O15  1  0.55658160  0.79067850  0.75167900  1
  O  O16  1  0.43355170  0.58003150  0.12804900  1
  O  O17  1  0.56644830  0.08003150  0.37195100  1
  O  O18  1  0.56644830  0.41996850  0.87195100  1
  O  O19  1  0.43355170  0.91996850  0.62804900  1
  O  O20  1  0.40752170  0.50295150  0.28048900  1
  O  O21  1  0.59247830  0.00295150  0.21951100  1
  O  O22  1  0.59247830  0.49704850  0.71951100  1
  O  O23  1  0.40752170  0.00000000  0.78048900  1
  O  O24  1  0.31770180  0.50583160  0.35729100  1
  O  O25  1  0.68229820  0.00583160  0.14270900  1
  O  O26  1  0.68229820  0.49416840  0.64270900  1
  O  O27  1  0.31770180  0.99416840  0.85729100  1
  O  O28  1  0.55512170  0.76508150  0.39798900  1
  O  O29  1  0.44487830  0.26508150  0.10201100  1
  O  O30  1  0.44487830  0.23491850  0.60201100  1
  O  O31  1  0.55512170  0.73491850  0.89798900  1
  O  O32  1  0.52885180  0.71121160  0.50393900  1
  O  O33  1  0.47114820  0.21121160  0.00000000  1
  O  O34  1  0.47114820  0.28878840  0.49606100  1
  O  O35  1  0.52885180  0.78878840  0.00393900  1
  O  O36  1  0.65138160  0.42650150  0.30055900  1
  O  O37  1  0.34861840  0.92650150  0.19944100  1
  O  O38  1  0.34861840  0.57349850  0.69944100  1
  O  O39  1  0.65138160  0.07349850  0.80055900  1
  O  O40  1  0.88572170  0.38011160  0.37925100  1
  O  O41  1  0.11427830  0.88011160  0.12074900  1
  O  O42  1  0.11427830  0.61988840  0.62074900  1
  O  O43  1  0.88572170  0.11988840  0.87925100  1
  O  O44  1  0.66498170  0.47075150  0.47928900  1
  O  O45  1  0.33501830  0.97075150  0.02071100  1
  O  O46  1  0.33501830  0.52924850  0.52071100  1
  O  O47  1  0.66498170  0.02924850  0.97928900  1
  O  O48  1  0.88751170  0.39735160  0.54207100  1
  O  O49  1  0.11248830  0.89735160  0.95792900  1
  O  O50  1  0.11248830  0.60264840  0.45792900  1
  O  O51  1  0.88751170  0.10264840  0.04207100  1
  O  O52  1  0.84107170  0.66216150  0.43640900  1
  O  O53  1  0.15892830  0.16216150  0.06359100  1
  O  O54  1  0.15892830  0.33783850  0.56359100  1
  O  O55  1  0.84107170  0.83783850  0.93640900  1
  O  O56  1  0.80679170  0.88001150  0.40695100  1
  O  O57  1  0.19320830  0.38001150  0.09304900  1
  O  O58  1  0.19320830  0.11998850  0.59304900  1
  O  O59  1  0.80679170  0.61998850  0.90695100  1
  C  C60  1  0.48853000  0.68682000  0.16728140  1
  C  C61  1  0.51147000  0.18682000  0.33271860  1
  C  C62  1  0.51147000  0.31318000  0.83271860  1
  C  C63  1  0.48853000  0.81318000  0.66728140  1
  C  C64  1  0.30603000  0.49492000  0.28696160  1
  C  C65  1  0.69397000  0.99492000  0.21303840  1
  C  C66  1  0.69397000  0.50508000  0.71303840  1
  C  C67  1  0.30603000  0.00508000  0.78696160  1
  C  C68  1  0.53553000  0.79212000  0.45732140  1
  C  C69  1  0.46447000  0.29212000  0.04267860  1
  C  C70  1  0.46447000  0.20788000  0.54267860  1
  C  C71  1  0.53553000  0.70788000  0.95732140  1
  C  C72  1  0.75813000  0.36492000  0.31419150  1
  C  C73  1  0.24187000  0.86492000  0.18580850  1
  C  C74  1  0.24187000  0.63508000  0.68580850  1
  C  C75  1  0.75813000  0.13508000  0.81419150  1
  C  C76  1  0.77583000  0.39722000  0.53422150  1
  C  C77  1  0.22417000  0.89722000  0.96577850  1
  C  C78  1  0.22417000  0.60278000  0.46577850  1
  C  C79  1  0.77583000  0.10278000  0.03422150  1
  C  C80  1  0.88393000  0.78032000  0.44229140  1
  C  C81  1  0.11607000  0.28032000  0.05770860  1
  C  C82  1  0.11607000  0.21968000  0.55770860  1
  C  C83  1  0.88393000  0.71968000  0.94229140  1
  H  H84  1  0.48430000  0.76020000  0.13241500  1
  H  H85  1  0.51570000  0.26020000  0.36758500  1
  H  H86  1  0.51570000  0.23980000  0.86758500  1
  H  H87  1  0.48430000  0.73980000  0.63241500  1
  H  H88  1  0.21330000  0.47430000  0.23081700  1
  H  H89  1  0.78670000  0.97430000  0.26918300  1
  H  H90  1  0.78670000  0.52570000  0.76918300  1
  H  H91  1  0.21330000  0.02570000  0.73081700  1
  H  H92  1  0.52220000  0.88920000  0.46241400  1
  H  H93  1  0.47780000  0.38920000  0.03758600  1
  H  H94  1  0.47780000  0.11080000  0.53758600  1
  H  H95  1  0.52220000  0.61080000  0.96241400  1
  H  H96  1  0.73130000  0.29930000  0.26561500  1
  H  H97  1  0.26870000  0.79930000  0.23438500  1
  H  H98  1  0.26870000  0.70070000  0.73438500  1
  H  H99  1  0.73130000  0.20070000  0.76561500  1
  H  H100  1  0.76830000  0.33920000  0.57121500  1
  H  H101  1  0.23170000  0.83920000  0.92878500  1
  H  H102  1  0.23170000  0.66080000  0.42878500  1
  H  H103  1  0.76830000  0.16080000  0.07121500  1
  H  H104  1  0.98930000  0.79430000  0.47811600  1
  H  H105  1  0.01070000  0.29430000  0.02188400  1
  H  H106  1  0.01070000  0.20570000  0.52188400  1
  H  H107  1  0.98930000  0.70570000  0.97811600  1
