# generated using pymatgen
data_Cu3H48C78(NO6)2
_symmetry_space_group_name_H-M   'P 1'
_cell_length_a   43.07036902
_cell_length_b   43.07036902
_cell_length_c   43.07036902
_cell_angle_alpha   60.00000000
_cell_angle_beta   60.00000000
_cell_angle_gamma   60.00000000
_symmetry_Int_Tables_number   1
_chemical_formula_structural   Cu3H48C78(NO6)2
_chemical_formula_sum   'Cu12 H192 C312 N8 O48'
_cell_volume   56496.40067989
_cell_formula_units_Z   4
loop_
 _symmetry_equiv_pos_site_id
 _symmetry_equiv_pos_as_xyz
  1  'x, y, z'
loop_
 _atom_site_type_symbol
 _atom_site_label
 _atom_site_symmetry_multiplicity
 _atom_site_fract_x
 _atom_site_fract_y
 _atom_site_fract_z
 _atom_site_occupancy
  C  C320  1  0.93419060  0.52600660  0.00953140  1.0
  C  C321  1  0.53027140  0.00953140  0.52600660  1.0
  C  C322  1  0.00953140  0.53027140  0.93419060  1.0
  C  C323  1  0.52600660  0.93419060  0.53027140  1.0
  C  C324  1  0.52600660  0.00953140  0.93419060  1.0
  C  C325  1  0.00953140  0.52600660  0.53027140  1.0
  C  C326  1  0.53027140  0.93419060  0.00953140  1.0
  C  C327  1  0.93419060  0.53027140  0.52600660  1.0
  C  C328  1  0.00953140  0.93419060  0.52600660  1.0
  C  C329  1  0.52600660  0.53027140  0.00953140  1.0
  C  C330  1  0.93419060  0.00953140  0.53027140  1.0
  C  C331  1  0.53027140  0.52600660  0.93419060  1.0
  C  C332  1  0.46972860  0.47399340  0.99046860  1.0
  C  C333  1  0.06580940  0.99046860  0.47399340  1.0
  C  C334  1  0.47399340  0.46972860  0.06580940  1.0
  C  C335  1  0.99046860  0.06580940  0.46972860  1.0
  C  C336  1  0.46972860  0.99046860  0.06580940  1.0
  C  C337  1  0.06580940  0.47399340  0.46972860  1.0
  C  C338  1  0.47399340  0.06580940  0.99046860  1.0
  C  C339  1  0.99046860  0.46972860  0.47399340  1.0
  C  C340  1  0.46972860  0.06580940  0.47399340  1.0
  C  C341  1  0.06580940  0.46972860  0.99046860  1.0
  C  C342  1  0.47399340  0.99046860  0.46972860  1.0
  C  C343  1  0.99046860  0.47399340  0.06580940  1.0
  C  C416  1  0.88892400  0.54428000  0.01700600  1.0
  C  C417  1  0.54979000  0.01700600  0.54428000  1.0
  C  C418  1  0.01700600  0.54979000  0.88892400  1.0
  C  C419  1  0.54428000  0.88892400  0.54979000  1.0
  C  C420  1  0.54428000  0.01700600  0.88892400  1.0
  C  C421  1  0.01700600  0.54428000  0.54979000  1.0
  C  C422  1  0.54979000  0.88892400  0.01700600  1.0
  C  C423  1  0.88892400  0.54979000  0.54428000  1.0
  C  C424  1  0.01700600  0.88892400  0.54428000  1.0
  C  C425  1  0.54428000  0.54979000  0.01700600  1.0
  C  C426  1  0.88892400  0.01700600  0.54979000  1.0
  C  C427  1  0.54979000  0.54428000  0.88892400  1.0
  C  C428  1  0.45021000  0.45572000  0.98299400  1.0
  C  C429  1  0.11107600  0.98299400  0.45572000  1.0
  C  C430  1  0.45572000  0.45021000  0.11107600  1.0
  C  C431  1  0.98299400  0.11107600  0.45021000  1.0
  C  C432  1  0.45021000  0.98299400  0.11107600  1.0
  C  C433  1  0.11107600  0.45572000  0.45021000  1.0
  C  C434  1  0.45572000  0.11107600  0.98299400  1.0
  C  C435  1  0.98299400  0.45021000  0.45572000  1.0
  C  C436  1  0.45021000  0.11107600  0.45572000  1.0
  C  C437  1  0.11107600  0.45021000  0.98299400  1.0
  C  C438  1  0.45572000  0.98299400  0.45021000  1.0
  C  C439  1  0.98299400  0.45572000  0.11107600  1.0
  C  C512  1  0.86921400  0.58047400  0.01991200  1.0
  C  C513  1  0.53040000  0.01991200  0.58047400  1.0
  C  C514  1  0.01991200  0.53040000  0.86921400  1.0
  C  C515  1  0.58047400  0.86921400  0.53040000  1.0
  C  C516  1  0.58047400  0.01991200  0.86921400  1.0
  C  C517  1  0.01991200  0.58047400  0.53040000  1.0
  C  C518  1  0.53040000  0.86921400  0.01991200  1.0
  C  C519  1  0.86921400  0.53040000  0.58047400  1.0
  C  C520  1  0.01991200  0.86921400  0.58047400  1.0
  C  C521  1  0.58047400  0.53040000  0.01991200  1.0
  C  C522  1  0.86921400  0.01991200  0.53040000  1.0
  C  C523  1  0.53040000  0.58047400  0.86921400  1.0
  C  C524  1  0.46960000  0.41952600  0.98008800  1.0
  C  C525  1  0.13078600  0.98008800  0.41952600  1.0
  C  C526  1  0.41952600  0.46960000  0.13078600  1.0
  C  C527  1  0.98008800  0.13078600  0.46960000  1.0
  C  C528  1  0.46960000  0.98008800  0.13078600  1.0
  C  C529  1  0.13078600  0.41952600  0.46960000  1.0
  C  C530  1  0.41952600  0.13078600  0.98008800  1.0
  C  C531  1  0.98008800  0.46960000  0.41952600  1.0
  C  C532  1  0.46960000  0.13078600  0.41952600  1.0
  C  C533  1  0.13078600  0.46960000  0.98008800  1.0
  C  C534  1  0.41952600  0.98008800  0.46960000  1.0
  C  C535  1  0.98008800  0.41952600  0.13078600  1.0
  C  C704  1  0.83100000  0.59772400  0.02310600  1.0
  C  C705  1  0.54817000  0.02310600  0.59772400  1.0
  C  C706  1  0.02310600  0.54817000  0.83100000  1.0
  C  C707  1  0.59772400  0.83100000  0.54817000  1.0
  C  C708  1  0.59772400  0.02310600  0.83100000  1.0
  C  C709  1  0.02310600  0.59772400  0.54817000  1.0
  C  C710  1  0.54817000  0.83100000  0.02310600  1.0
  C  C711  1  0.83100000  0.54817000  0.59772400  1.0
  C  C712  1  0.02310600  0.83100000  0.59772400  1.0
  C  C713  1  0.59772400  0.54817000  0.02310600  1.0
  C  C714  1  0.83100000  0.02310600  0.54817000  1.0
  C  C715  1  0.54817000  0.59772400  0.83100000  1.0
  C  C716  1  0.45183000  0.40227600  0.97689400  1.0
  C  C717  1  0.16900000  0.97689400  0.40227600  1.0
  C  C718  1  0.40227600  0.45183000  0.16900000  1.0
  C  C719  1  0.97689400  0.16900000  0.45183000  1.0
  C  C720  1  0.45183000  0.97689400  0.16900000  1.0
  C  C721  1  0.16900000  0.40227600  0.45183000  1.0
  C  C722  1  0.40227600  0.16900000  0.97689400  1.0
  C  C723  1  0.97689400  0.45183000  0.40227600  1.0
  C  C724  1  0.45183000  0.16900000  0.40227600  1.0
  C  C725  1  0.16900000  0.45183000  0.97689400  1.0
  C  C726  1  0.40227600  0.97689400  0.45183000  1.0
  C  C727  1  0.97689400  0.40227600  0.16900000  1.0
  C  C896  1  0.81250400  0.57876000  0.02338400  1.0
  C  C897  1  0.58535200  0.02338400  0.57876000  1.0
  C  C898  1  0.02338400  0.58535200  0.81250400  1.0
  C  C899  1  0.57876000  0.81250400  0.58535200  1.0
  C  C900  1  0.57876000  0.02338400  0.81250400  1.0
  C  C901  1  0.02338400  0.57876000  0.58535200  1.0
  C  C902  1  0.58535200  0.81250400  0.02338400  1.0
  C  C903  1  0.81250400  0.58535200  0.57876000  1.0
  C  C904  1  0.02338400  0.81250400  0.57876000  1.0
  C  C905  1  0.57876000  0.58535200  0.02338400  1.0
  C  C906  1  0.81250400  0.02338400  0.58535200  1.0
  C  C907  1  0.58535200  0.57876000  0.81250400  1.0
  C  C908  1  0.41464800  0.42124000  0.97661600  1.0
  C  C909  1  0.18749600  0.97661600  0.42124000  1.0
  C  C910  1  0.42124000  0.41464800  0.18749600  1.0
  C  C911  1  0.97661600  0.18749600  0.41464800  1.0
  C  C912  1  0.41464800  0.97661600  0.18749600  1.0
  C  C913  1  0.18749600  0.42124000  0.41464800  1.0
  C  C914  1  0.42124000  0.18749600  0.97661600  1.0
  C  C915  1  0.97661600  0.41464800  0.42124000  1.0
  C  C916  1  0.41464800  0.18749600  0.42124000  1.0
  C  C917  1  0.18749600  0.41464800  0.97661600  1.0
  C  C918  1  0.42124000  0.97661600  0.41464800  1.0
  C  C919  1  0.97661600  0.42124000  0.18749600  1.0
  C  C992  1  0.83221500  0.54257500  0.02046900  1.0
  C  C993  1  0.60474100  0.02046900  0.54257500  1.0
  C  C994  1  0.02046900  0.60474100  0.83221500  1.0
  C  C995  1  0.54257500  0.83221500  0.60474100  1.0
  C  C996  1  0.54257500  0.02046900  0.83221500  1.0
  C  C997  1  0.02046900  0.54257500  0.60474100  1.0
  C  C998  1  0.60474100  0.83221500  0.02046900  1.0
  C  C999  1  0.83221500  0.60474100  0.54257500  1.0
  C  C1000  1  0.02046900  0.83221500  0.54257500  1.0
  C  C1001  1  0.54257500  0.60474100  0.02046900  1.0
  C  C1002  1  0.83221500  0.02046900  0.60474100  1.0
  C  C1003  1  0.60474100  0.54257500  0.83221500  1.0
  C  C1004  1  0.39525900  0.45742500  0.97953100  1.0
  C  C1005  1  0.16778500  0.97953100  0.45742500  1.0
  C  C1006  1  0.45742500  0.39525900  0.16778500  1.0
  C  C1007  1  0.97953100  0.16778500  0.39525900  1.0
  C  C1008  1  0.39525900  0.97953100  0.16778500  1.0
  C  C1009  1  0.16778500  0.45742500  0.39525900  1.0
  C  C1010  1  0.45742500  0.16778500  0.97953100  1.0
  C  C1011  1  0.97953100  0.39525900  0.45742500  1.0
  C  C1012  1  0.39525900  0.16778500  0.45742500  1.0
  C  C1013  1  0.16778500  0.39525900  0.97953100  1.0
  C  C1014  1  0.45742500  0.97953100  0.39525900  1.0
  C  C1015  1  0.97953100  0.45742500  0.16778500  1.0
  C  C1184  1  0.87042100  0.52532300  0.01728500  1.0
  C  C1185  1  0.58697100  0.01728500  0.52532300  1.0
  C  C1186  1  0.01728500  0.58697100  0.87042100  1.0
  C  C1187  1  0.52532300  0.87042100  0.58697100  1.0
  C  C1188  1  0.52532300  0.01728500  0.87042100  1.0
  C  C1189  1  0.01728500  0.52532300  0.58697100  1.0
  C  C1190  1  0.58697100  0.87042100  0.01728500  1.0
  C  C1191  1  0.87042100  0.58697100  0.52532300  1.0
  C  C1192  1  0.01728500  0.87042100  0.52532300  1.0
  C  C1193  1  0.52532300  0.58697100  0.01728500  1.0
  C  C1194  1  0.87042100  0.01728500  0.58697100  1.0
  C  C1195  1  0.58697100  0.52532300  0.87042100  1.0
  C  C1196  1  0.41302900  0.47467700  0.98271500  1.0
  C  C1197  1  0.12957900  0.98271500  0.47467700  1.0
  C  C1198  1  0.47467700  0.41302900  0.12957900  1.0
  C  C1199  1  0.98271500  0.12957900  0.41302900  1.0
  C  C1200  1  0.41302900  0.98271500  0.12957900  1.0
  C  C1201  1  0.12957900  0.47467700  0.41302900  1.0
  C  C1202  1  0.47467700  0.12957900  0.98271500  1.0
  C  C1203  1  0.98271500  0.41302900  0.47467700  1.0
  C  C1204  1  0.41302900  0.12957900  0.47467700  1.0
  C  C1205  1  0.12957900  0.41302900  0.98271500  1.0
  C  C1206  1  0.47467700  0.98271500  0.41302900  1.0
  C  C1207  1  0.98271500  0.47467700  0.12957900  1.0
  C  C1376  1  0.77070990  0.59598790  0.02817810  1.0
  C  C1377  1  0.60512410  0.02817810  0.59598790  1.0
  C  C1378  1  0.02817810  0.60512410  0.77070990  1.0
  C  C1379  1  0.59598790  0.77070990  0.60512410  1.0
  C  C1380  1  0.59598790  0.02817810  0.77070990  1.0
  C  C1381  1  0.02817810  0.59598790  0.60512410  1.0
  C  C1382  1  0.60512410  0.77070990  0.02817810  1.0
  C  C1383  1  0.77070990  0.60512410  0.59598790  1.0
  C  C1384  1  0.02817810  0.77070990  0.59598790  1.0
  C  C1385  1  0.59598790  0.60512410  0.02817810  1.0
  C  C1386  1  0.77070990  0.02817810  0.60512410  1.0
  C  C1387  1  0.60512410  0.59598790  0.77070990  1.0
  C  C1388  1  0.39487590  0.40401210  0.97182190  1.0
  C  C1389  1  0.22929010  0.97182190  0.40401210  1.0
  C  C1390  1  0.40401210  0.39487590  0.22929010  1.0
  C  C1391  1  0.97182190  0.22929010  0.39487590  1.0
  C  C1392  1  0.39487590  0.97182190  0.22929010  1.0
  C  C1393  1  0.22929010  0.40401210  0.39487590  1.0
  C  C1394  1  0.40401210  0.22929010  0.97182190  1.0
  C  C1395  1  0.97182190  0.39487590  0.40401210  1.0
  C  C1396  1  0.39487590  0.22929010  0.40401210  1.0
  C  C1397  1  0.22929010  0.39487590  0.97182190  1.0
  C  C1398  1  0.40401210  0.97182190  0.39487590  1.0
  C  C1399  1  0.97182190  0.40401210  0.22929010  1.0
  C  C1472  1  0.75820000  0.63530600  0.01155800  1.0
  C  C1473  1  0.59493600  0.01155800  0.63530600  1.0
  C  C1474  1  0.01155800  0.59493600  0.75820000  1.0
  C  C1475  1  0.63530600  0.75820000  0.59493600  1.0
  C  C1476  1  0.63530600  0.01155800  0.75820000  1.0
  C  C1477  1  0.01155800  0.63530600  0.59493600  1.0
  C  C1478  1  0.59493600  0.75820000  0.01155800  1.0
  C  C1479  1  0.75820000  0.59493600  0.63530600  1.0
  C  C1480  1  0.01155800  0.75820000  0.63530600  1.0
  C  C1481  1  0.63530600  0.59493600  0.01155800  1.0
  C  C1482  1  0.75820000  0.01155800  0.59493600  1.0
  C  C1483  1  0.59493600  0.63530600  0.75820000  1.0
  C  C1484  1  0.40506400  0.36469400  0.98844200  1.0
  C  C1485  1  0.24180000  0.98844200  0.36469400  1.0
  C  C1486  1  0.36469400  0.40506400  0.24180000  1.0
  C  C1487  1  0.98844200  0.24180000  0.40506400  1.0
  C  C1488  1  0.40506400  0.98844200  0.24180000  1.0
  C  C1489  1  0.24180000  0.36469400  0.40506400  1.0
  C  C1490  1  0.36469400  0.24180000  0.98844200  1.0
  C  C1491  1  0.98844200  0.40506400  0.36469400  1.0
  C  C1492  1  0.40506400  0.24180000  0.36469400  1.0
  C  C1493  1  0.24180000  0.40506400  0.98844200  1.0
  C  C1494  1  0.36469400  0.98844200  0.40506400  1.0
  C  C1495  1  0.98844200  0.36469400  0.24180000  1.0
  C  C1664  1  0.72004000  0.65498200  0.01486400  1.0
  C  C1665  1  0.61011400  0.01486400  0.65498200  1.0
  C  C1666  1  0.01486400  0.61011400  0.72004000  1.0
  C  C1667  1  0.65498200  0.72004000  0.61011400  1.0
  C  C1668  1  0.65498200  0.01486400  0.72004000  1.0
  C  C1669  1  0.01486400  0.65498200  0.61011400  1.0
  C  C1670  1  0.61011400  0.72004000  0.01486400  1.0
  C  C1671  1  0.72004000  0.61011400  0.65498200  1.0
  C  C1672  1  0.01486400  0.72004000  0.65498200  1.0
  C  C1673  1  0.65498200  0.61011400  0.01486400  1.0
  C  C1674  1  0.72004000  0.01486400  0.61011400  1.0
  C  C1675  1  0.61011400  0.65498200  0.72004000  1.0
  C  C1676  1  0.38988600  0.34501800  0.98513600  1.0
  C  C1677  1  0.27996000  0.98513600  0.34501800  1.0
  C  C1678  1  0.34501800  0.38988600  0.27996000  1.0
  C  C1679  1  0.98513600  0.27996000  0.38988600  1.0
  C  C1680  1  0.38988600  0.98513600  0.27996000  1.0
  C  C1681  1  0.27996000  0.34501800  0.38988600  1.0
  C  C1682  1  0.34501800  0.27996000  0.98513600  1.0
  C  C1683  1  0.98513600  0.38988600  0.34501800  1.0
  C  C1684  1  0.38988600  0.27996000  0.34501800  1.0
  C  C1685  1  0.27996000  0.38988600  0.98513600  1.0
  C  C1686  1  0.34501800  0.98513600  0.38988600  1.0
  C  C1687  1  0.98513600  0.34501800  0.27996000  1.0
  C  C1856  1  0.69443100  0.63532700  0.03475700  1.0
  C  C1857  1  0.63548500  0.03475700  0.63532700  1.0
  C  C1858  1  0.03475700  0.63548500  0.69443100  1.0
  C  C1859  1  0.63532700  0.69443100  0.63548500  1.0
  C  C1860  1  0.63532700  0.03475700  0.69443100  1.0
  C  C1861  1  0.03475700  0.63532700  0.63548500  1.0
  C  C1862  1  0.63548500  0.69443100  0.03475700  1.0
  C  C1863  1  0.69443100  0.63548500  0.63532700  1.0
  C  C1864  1  0.03475700  0.69443100  0.63532700  1.0
  C  C1865  1  0.63532700  0.63548500  0.03475700  1.0
  C  C1866  1  0.69443100  0.03475700  0.63548500  1.0
  C  C1867  1  0.63548500  0.63532700  0.69443100  1.0
  C  C1868  1  0.36451500  0.36467300  0.96524300  1.0
  C  C1869  1  0.30556900  0.96524300  0.36467300  1.0
  C  C1870  1  0.36467300  0.36451500  0.30556900  1.0
  C  C1871  1  0.96524300  0.30556900  0.36451500  1.0
  C  C1872  1  0.36451500  0.96524300  0.30556900  1.0
  C  C1873  1  0.30556900  0.36467300  0.36451500  1.0
  C  C1874  1  0.36467300  0.30556900  0.96524300  1.0
  C  C1875  1  0.96524300  0.36451500  0.36467300  1.0
  C  C1876  1  0.36451500  0.30556900  0.36467300  1.0
  C  C1877  1  0.30556900  0.36451500  0.96524300  1.0
  C  C1878  1  0.36467300  0.96524300  0.36451500  1.0
  C  C1879  1  0.96524300  0.36467300  0.30556900  1.0
  C  C1952  1  0.70694400  0.59600400  0.05137800  1.0
  C  C1953  1  0.64567400  0.05137800  0.59600400  1.0
  C  C1954  1  0.05137800  0.64567400  0.70694400  1.0
  C  C1955  1  0.59600400  0.70694400  0.64567400  1.0
  C  C1956  1  0.59600400  0.05137800  0.70694400  1.0
  C  C1957  1  0.05137800  0.59600400  0.64567400  1.0
  C  C1958  1  0.64567400  0.70694400  0.05137800  1.0
  C  C1959  1  0.70694400  0.64567400  0.59600400  1.0
  C  C1960  1  0.05137800  0.70694400  0.59600400  1.0
  C  C1961  1  0.59600400  0.64567400  0.05137800  1.0
  C  C1962  1  0.70694400  0.05137800  0.64567400  1.0
  C  C1963  1  0.64567400  0.59600400  0.70694400  1.0
  C  C1964  1  0.35432600  0.40399600  0.94862200  1.0
  C  C1965  1  0.29305600  0.94862200  0.40399600  1.0
  C  C1966  1  0.40399600  0.35432600  0.29305600  1.0
  C  C1967  1  0.94862200  0.29305600  0.35432600  1.0
  C  C1968  1  0.35432600  0.94862200  0.29305600  1.0
  C  C1969  1  0.29305600  0.40399600  0.35432600  1.0
  C  C1970  1  0.40399600  0.29305600  0.94862200  1.0
  C  C1971  1  0.94862200  0.35432600  0.40399600  1.0
  C  C1972  1  0.35432600  0.29305600  0.40399600  1.0
  C  C1973  1  0.29305600  0.35432600  0.94862200  1.0
  C  C1974  1  0.40399600  0.94862200  0.35432600  1.0
  C  C1975  1  0.94862200  0.40399600  0.29305600  1.0
  C  C2144  1  0.74509000  0.57632800  0.04807600  1.0
  C  C2145  1  0.63050600  0.04807600  0.57632800  1.0
  C  C2146  1  0.04807600  0.63050600  0.74509000  1.0
  C  C2147  1  0.57632800  0.74509000  0.63050600  1.0
  C  C2148  1  0.57632800  0.04807600  0.74509000  1.0
  C  C2149  1  0.04807600  0.57632800  0.63050600  1.0
  C  C2150  1  0.63050600  0.74509000  0.04807600  1.0
  C  C2151  1  0.74509000  0.63050600  0.57632800  1.0
  C  C2152  1  0.04807600  0.74509000  0.57632800  1.0
  C  C2153  1  0.57632800  0.63050600  0.04807600  1.0
  C  C2154  1  0.74509000  0.04807600  0.63050600  1.0
  C  C2155  1  0.63050600  0.57632800  0.74509000  1.0
  C  C2156  1  0.36949400  0.42367200  0.95192400  1.0
  C  C2157  1  0.25491000  0.95192400  0.42367200  1.0
  C  C2158  1  0.42367200  0.36949400  0.25491000  1.0
  C  C2159  1  0.95192400  0.25491000  0.36949400  1.0
  C  C2160  1  0.36949400  0.95192400  0.25491000  1.0
  C  C2161  1  0.25491000  0.42367200  0.36949400  1.0
  C  C2162  1  0.42367200  0.25491000  0.95192400  1.0
  C  C2163  1  0.95192400  0.36949400  0.42367200  1.0
  C  C2164  1  0.36949400  0.25491000  0.42367200  1.0
  C  C2165  1  0.25491000  0.36949400  0.95192400  1.0
  C  C2166  1  0.42367200  0.95192400  0.36949400  1.0
  C  C2167  1  0.95192400  0.42367200  0.25491000  1.0
  Cu  Cu0  1  1.00000000  0.53047420  1.00000000  1.0
  Cu  Cu1  1  0.46952580  1.00000000  0.53047420  1.0
  Cu  Cu2  1  1.00000000  0.46952580  1.00000000  1.0
  Cu  Cu3  1  0.53047420  1.00000000  0.46952580  1.0
  Cu  Cu4  1  0.53047420  1.00000000  0.00000000  1.0
  Cu  Cu5  1  0.00000000  0.53047420  0.46952580  1.0
  Cu  Cu6  1  0.46952580  1.00000000  1.00000000  1.0
  Cu  Cu7  1  0.00000000  0.46952580  0.53047420  1.0
  Cu  Cu8  1  1.00000000  0.00000000  0.53047420  1.0
  Cu  Cu9  1  0.53047420  0.46952580  0.00000000  1.0
  Cu  Cu10  1  1.00000000  0.00000000  0.46952580  1.0
  Cu  Cu11  1  0.46952580  0.53047420  0.00000000  1.0
  H  H608  1  0.88160000  0.59320000  0.01980000  1.0
  H  H609  1  0.50540000  0.01980000  0.59320000  1.0
  H  H610  1  0.01980000  0.50540000  0.88160000  1.0
  H  H611  1  0.59320000  0.88160000  0.50540000  1.0
  H  H612  1  0.59320000  0.01980000  0.88160000  1.0
  H  H613  1  0.01980000  0.59320000  0.50540000  1.0
  H  H614  1  0.50540000  0.88160000  0.01980000  1.0
  H  H615  1  0.88160000  0.50540000  0.59320000  1.0
  H  H616  1  0.01980000  0.88160000  0.59320000  1.0
  H  H617  1  0.59320000  0.50540000  0.01980000  1.0
  H  H618  1  0.88160000  0.01980000  0.50540000  1.0
  H  H619  1  0.50540000  0.59320000  0.88160000  1.0
  H  H620  1  0.49460000  0.40680000  0.98020000  1.0
  H  H621  1  0.11840000  0.98020000  0.40680000  1.0
  H  H622  1  0.40680000  0.49460000  0.11840000  1.0
  H  H623  1  0.98020000  0.11840000  0.49460000  1.0
  H  H624  1  0.49460000  0.98020000  0.11840000  1.0
  H  H625  1  0.11840000  0.40680000  0.49460000  1.0
  H  H626  1  0.40680000  0.11840000  0.98020000  1.0
  H  H627  1  0.98020000  0.49460000  0.40680000  1.0
  H  H628  1  0.49460000  0.11840000  0.40680000  1.0
  H  H629  1  0.11840000  0.49460000  0.98020000  1.0
  H  H630  1  0.40680000  0.98020000  0.49460000  1.0
  H  H631  1  0.98020000  0.40680000  0.11840000  1.0
  H  H800  1  0.81780000  0.62200000  0.02500000  1.0
  H  H801  1  0.53520000  0.02500000  0.62200000  1.0
  H  H802  1  0.02500000  0.53520000  0.81780000  1.0
  H  H803  1  0.62200000  0.81780000  0.53520000  1.0
  H  H804  1  0.62200000  0.02500000  0.81780000  1.0
  H  H805  1  0.02500000  0.62200000  0.53520000  1.0
  H  H806  1  0.53520000  0.81780000  0.02500000  1.0
  H  H807  1  0.81780000  0.53520000  0.62200000  1.0
  H  H808  1  0.02500000  0.81780000  0.62200000  1.0
  H  H809  1  0.62200000  0.53520000  0.02500000  1.0
  H  H810  1  0.81780000  0.02500000  0.53520000  1.0
  H  H811  1  0.53520000  0.62200000  0.81780000  1.0
  H  H812  1  0.46480000  0.37800000  0.97500000  1.0
  H  H813  1  0.18220000  0.97500000  0.37800000  1.0
  H  H814  1  0.37800000  0.46480000  0.18220000  1.0
  H  H815  1  0.97500000  0.18220000  0.46480000  1.0
  H  H816  1  0.46480000  0.97500000  0.18220000  1.0
  H  H817  1  0.18220000  0.37800000  0.46480000  1.0
  H  H818  1  0.37800000  0.18220000  0.97500000  1.0
  H  H819  1  0.97500000  0.46480000  0.37800000  1.0
  H  H820  1  0.46480000  0.18220000  0.37800000  1.0
  H  H821  1  0.18220000  0.46480000  0.97500000  1.0
  H  H822  1  0.37800000  0.97500000  0.46480000  1.0
  H  H823  1  0.97500000  0.37800000  0.18220000  1.0
  H  H1088  1  0.81990000  0.52990000  0.02070000  1.0
  H  H1089  1  0.62950000  0.02070000  0.52990000  1.0
  H  H1090  1  0.02070000  0.62950000  0.81990000  1.0
  H  H1091  1  0.52990000  0.81990000  0.62950000  1.0
  H  H1092  1  0.52990000  0.02070000  0.81990000  1.0
  H  H1093  1  0.02070000  0.52990000  0.62950000  1.0
  H  H1094  1  0.62950000  0.81990000  0.02070000  1.0
  H  H1095  1  0.81990000  0.62950000  0.52990000  1.0
  H  H1096  1  0.02070000  0.81990000  0.52990000  1.0
  H  H1097  1  0.52990000  0.62950000  0.02070000  1.0
  H  H1098  1  0.81990000  0.02070000  0.62950000  1.0
  H  H1099  1  0.62950000  0.52990000  0.81990000  1.0
  H  H1100  1  0.37050000  0.47010000  0.97930000  1.0
  H  H1101  1  0.18010000  0.97930000  0.47010000  1.0
  H  H1102  1  0.47010000  0.37050000  0.18010000  1.0
  H  H1103  1  0.97930000  0.18010000  0.37050000  1.0
  H  H1104  1  0.37050000  0.97930000  0.18010000  1.0
  H  H1105  1  0.18010000  0.47010000  0.37050000  1.0
  H  H1106  1  0.47010000  0.18010000  0.97930000  1.0
  H  H1107  1  0.97930000  0.37050000  0.47010000  1.0
  H  H1108  1  0.37050000  0.18010000  0.47010000  1.0
  H  H1109  1  0.18010000  0.37050000  0.97930000  1.0
  H  H1110  1  0.47010000  0.97930000  0.37050000  1.0
  H  H1111  1  0.97930000  0.47010000  0.18010000  1.0
  H  H1280  1  0.88370000  0.50110000  0.01530000  1.0
  H  H1281  1  0.59990000  0.01530000  0.50110000  1.0
  H  H1282  1  0.01530000  0.59990000  0.88370000  1.0
  H  H1283  1  0.50110000  0.88370000  0.59990000  1.0
  H  H1284  1  0.50110000  0.01530000  0.88370000  1.0
  H  H1285  1  0.01530000  0.50110000  0.59990000  1.0
  H  H1286  1  0.59990000  0.88370000  0.01530000  1.0
  H  H1287  1  0.88370000  0.59990000  0.50110000  1.0
  H  H1288  1  0.01530000  0.88370000  0.50110000  1.0
  H  H1289  1  0.50110000  0.59990000  0.01530000  1.0
  H  H1290  1  0.88370000  0.01530000  0.59990000  1.0
  H  H1291  1  0.59990000  0.50110000  0.88370000  1.0
  H  H1292  1  0.40010000  0.49890000  0.98470000  1.0
  H  H1293  1  0.11630000  0.98470000  0.49890000  1.0
  H  H1294  1  0.49890000  0.40010000  0.11630000  1.0
  H  H1295  1  0.98470000  0.11630000  0.40010000  1.0
  H  H1296  1  0.40010000  0.98470000  0.11630000  1.0
  H  H1297  1  0.11630000  0.49890000  0.40010000  1.0
  H  H1298  1  0.49890000  0.11630000  0.98470000  1.0
  H  H1299  1  0.98470000  0.40010000  0.49890000  1.0
  H  H1300  1  0.40010000  0.11630000  0.49890000  1.0
  H  H1301  1  0.11630000  0.40010000  0.98470000  1.0
  H  H1302  1  0.49890000  0.98470000  0.40010000  1.0
  H  H1303  1  0.98470000  0.49890000  0.11630000  1.0
  H  H1568  1  0.77530000  0.64850000  0.99830000  1.0
  H  H1569  1  0.57790000  0.99830000  0.64850000  1.0
  H  H1570  1  0.99830000  0.57790000  0.77530000  1.0
  H  H1571  1  0.64850000  0.77530000  0.57790000  1.0
  H  H1572  1  0.64850000  0.99830000  0.77530000  1.0
  H  H1573  1  0.99830000  0.64850000  0.57790000  1.0
  H  H1574  1  0.57790000  0.77530000  0.99830000  1.0
  H  H1575  1  0.77530000  0.57790000  0.64850000  1.0
  H  H1576  1  0.99830000  0.77530000  0.64850000  1.0
  H  H1577  1  0.64850000  0.57790000  0.99830000  1.0
  H  H1578  1  0.77530000  0.99830000  0.57790000  1.0
  H  H1579  1  0.57790000  0.64850000  0.77530000  1.0
  H  H1580  1  0.42210000  0.35150000  0.00170000  1.0
  H  H1581  1  0.22470000  0.00170000  0.35150000  1.0
  H  H1582  1  0.35150000  0.42210000  0.22470000  1.0
  H  H1583  1  0.00170000  0.22470000  0.42210000  1.0
  H  H1584  1  0.42210000  0.00170000  0.22470000  1.0
  H  H1585  1  0.22470000  0.35150000  0.42210000  1.0
  H  H1586  1  0.35150000  0.22470000  0.00170000  1.0
  H  H1587  1  0.00170000  0.42210000  0.35150000  1.0
  H  H1588  1  0.42210000  0.22470000  0.35150000  1.0
  H  H1589  1  0.22470000  0.42210000  0.00170000  1.0
  H  H1590  1  0.35150000  0.00170000  0.42210000  1.0
  H  H1591  1  0.00170000  0.35150000  0.22470000  1.0
  H  H1760  1  0.71170000  0.68130000  0.00370000  1.0
  H  H1761  1  0.60330000  0.00370000  0.68130000  1.0
  H  H1762  1  0.00370000  0.60330000  0.71170000  1.0
  H  H1763  1  0.68130000  0.71170000  0.60330000  1.0
  H  H1764  1  0.68130000  0.00370000  0.71170000  1.0
  H  H1765  1  0.00370000  0.68130000  0.60330000  1.0
  H  H1766  1  0.60330000  0.71170000  0.00370000  1.0
  H  H1767  1  0.71170000  0.60330000  0.68130000  1.0
  H  H1768  1  0.00370000  0.71170000  0.68130000  1.0
  H  H1769  1  0.68130000  0.60330000  0.00370000  1.0
  H  H1770  1  0.71170000  0.00370000  0.60330000  1.0
  H  H1771  1  0.60330000  0.68130000  0.71170000  1.0
  H  H1772  1  0.39670000  0.31870000  0.99630000  1.0
  H  H1773  1  0.28830000  0.99630000  0.31870000  1.0
  H  H1774  1  0.31870000  0.39670000  0.28830000  1.0
  H  H1775  1  0.99630000  0.28830000  0.39670000  1.0
  H  H1776  1  0.39670000  0.99630000  0.28830000  1.0
  H  H1777  1  0.28830000  0.31870000  0.39670000  1.0
  H  H1778  1  0.31870000  0.28830000  0.99630000  1.0
  H  H1779  1  0.99630000  0.39670000  0.31870000  1.0
  H  H1780  1  0.39670000  0.28830000  0.31870000  1.0
  H  H1781  1  0.28830000  0.39670000  0.99630000  1.0
  H  H1782  1  0.31870000  0.99630000  0.39670000  1.0
  H  H1783  1  0.99630000  0.31870000  0.28830000  1.0
  H  H2048  1  0.68980000  0.58280000  0.06480000  1.0
  H  H2049  1  0.66260000  0.06480000  0.58280000  1.0
  H  H2050  1  0.06480000  0.66260000  0.68980000  1.0
  H  H2051  1  0.58280000  0.68980000  0.66260000  1.0
  H  H2052  1  0.58280000  0.06480000  0.68980000  1.0
  H  H2053  1  0.06480000  0.58280000  0.66260000  1.0
  H  H2054  1  0.66260000  0.68980000  0.06480000  1.0
  H  H2055  1  0.68980000  0.66260000  0.58280000  1.0
  H  H2056  1  0.06480000  0.68980000  0.58280000  1.0
  H  H2057  1  0.58280000  0.66260000  0.06480000  1.0
  H  H2058  1  0.68980000  0.06480000  0.66260000  1.0
  H  H2059  1  0.66260000  0.58280000  0.68980000  1.0
  H  H2060  1  0.33740000  0.41720000  0.93520000  1.0
  H  H2061  1  0.31020000  0.93520000  0.41720000  1.0
  H  H2062  1  0.41720000  0.33740000  0.31020000  1.0
  H  H2063  1  0.93520000  0.31020000  0.33740000  1.0
  H  H2064  1  0.33740000  0.93520000  0.31020000  1.0
  H  H2065  1  0.31020000  0.41720000  0.33740000  1.0
  H  H2066  1  0.41720000  0.31020000  0.93520000  1.0
  H  H2067  1  0.93520000  0.33740000  0.41720000  1.0
  H  H2068  1  0.33740000  0.31020000  0.41720000  1.0
  H  H2069  1  0.31020000  0.33740000  0.93520000  1.0
  H  H2070  1  0.41720000  0.93520000  0.33740000  1.0
  H  H2071  1  0.93520000  0.41720000  0.31020000  1.0
  H  H2240  1  0.75340000  0.55000000  0.05920000  1.0
  H  H2241  1  0.63740000  0.05920000  0.55000000  1.0
  H  H2242  1  0.05920000  0.63740000  0.75340000  1.0
  H  H2243  1  0.55000000  0.75340000  0.63740000  1.0
  H  H2244  1  0.55000000  0.05920000  0.75340000  1.0
  H  H2245  1  0.05920000  0.55000000  0.63740000  1.0
  H  H2246  1  0.63740000  0.75340000  0.05920000  1.0
  H  H2247  1  0.75340000  0.63740000  0.55000000  1.0
  H  H2248  1  0.05920000  0.75340000  0.55000000  1.0
  H  H2249  1  0.55000000  0.63740000  0.05920000  1.0
  H  H2250  1  0.75340000  0.05920000  0.63740000  1.0
  H  H2251  1  0.63740000  0.55000000  0.75340000  1.0
  H  H2252  1  0.36260000  0.45000000  0.94080000  1.0
  H  H2253  1  0.24660000  0.94080000  0.45000000  1.0
  H  H2254  1  0.45000000  0.36260000  0.24660000  1.0
  H  H2255  1  0.94080000  0.24660000  0.36260000  1.0
  H  H2256  1  0.36260000  0.94080000  0.24660000  1.0
  H  H2257  1  0.24660000  0.45000000  0.36260000  1.0
  H  H2258  1  0.45000000  0.24660000  0.94080000  1.0
  H  H2259  1  0.94080000  0.36260000  0.45000000  1.0
  H  H2260  1  0.36260000  0.24660000  0.45000000  1.0
  H  H2261  1  0.24660000  0.36260000  0.94080000  1.0
  H  H2262  1  0.45000000  0.94080000  0.36260000  1.0
  H  H2263  1  0.94080000  0.45000000  0.24660000  1.0
  N  N288  1  0.65502000  0.65502000  0.03493300  1.0
  N  N289  1  0.65502700  0.03493300  0.65502000  1.0
  N  N290  1  0.03493300  0.65502700  0.65502000  1.0
  N  N291  1  0.65502000  0.65502000  0.65502700  1.0
  N  N300  1  0.34498000  0.34498000  0.96506700  1.0
  N  N301  1  0.34497300  0.96506700  0.34498000  1.0
  N  N302  1  0.34498000  0.34498000  0.34497300  1.0
  N  N303  1  0.96506700  0.34497300  0.34498000  1.0
  O  O48  1  0.94973200  0.54083400  0.01593600  1.0
  O  O49  1  0.49349800  0.01593600  0.54083400  1.0
  O  O50  1  0.01593600  0.49349800  0.94973200  1.0
  O  O51  1  0.54083400  0.94973200  0.49349800  1.0
  O  O52  1  0.54083400  0.01593600  0.94973200  1.0
  O  O53  1  0.01593600  0.54083400  0.49349800  1.0
  O  O54  1  0.49349800  0.94973200  0.01593600  1.0
  O  O55  1  0.94973200  0.49349800  0.54083400  1.0
  O  O56  1  0.01593600  0.94973200  0.54083400  1.0
  O  O57  1  0.54083400  0.49349800  0.01593600  1.0
  O  O58  1  0.94973200  0.01593600  0.49349800  1.0
  O  O59  1  0.49349800  0.54083400  0.94973200  1.0
  O  O60  1  0.50650200  0.45916600  0.98406400  1.0
  O  O61  1  0.05026800  0.98406400  0.45916600  1.0
  O  O62  1  0.45916600  0.50650200  0.05026800  1.0
  O  O63  1  0.98406400  0.05026800  0.50650200  1.0
  O  O64  1  0.50650200  0.98406400  0.05026800  1.0
  O  O65  1  0.05026800  0.45916600  0.50650200  1.0
  O  O66  1  0.45916600  0.05026800  0.98406400  1.0
  O  O67  1  0.98406400  0.50650200  0.45916600  1.0
  O  O68  1  0.50650200  0.05026800  0.45916600  1.0
  O  O69  1  0.05026800  0.50650200  0.98406400  1.0
  O  O70  1  0.45916600  0.98406400  0.50650200  1.0
  O  O71  1  0.98406400  0.45916600  0.05026800  1.0
  O  O144  1  0.94479400  0.49385400  0.00549600  1.0
  O  O145  1  0.55585600  0.00549600  0.49385400  1.0
  O  O146  1  0.00549600  0.55585600  0.94479400  1.0
  O  O147  1  0.49385400  0.94479400  0.55585600  1.0
  O  O148  1  0.49385400  0.00549600  0.94479400  1.0
  O  O149  1  0.00549600  0.49385400  0.55585600  1.0
  O  O150  1  0.55585600  0.94479400  0.00549600  1.0
  O  O151  1  0.94479400  0.55585600  0.49385400  1.0
  O  O152  1  0.00549600  0.94479400  0.49385400  1.0
  O  O153  1  0.49385400  0.55585600  0.00549600  1.0
  O  O154  1  0.94479400  0.00549600  0.55585600  1.0
  O  O155  1  0.55585600  0.49385400  0.94479400  1.0
  O  O156  1  0.44414400  0.50614600  0.99450400  1.0
  O  O157  1  0.05520600  0.99450400  0.50614600  1.0
  O  O158  1  0.50614600  0.44414400  0.05520600  1.0
  O  O159  1  0.99450400  0.05520600  0.44414400  1.0
  O  O160  1  0.44414400  0.99450400  0.05520600  1.0
  O  O161  1  0.05520600  0.50614600  0.44414400  1.0
  O  O162  1  0.50614600  0.05520600  0.99450400  1.0
  O  O163  1  0.99450400  0.44414400  0.50614600  1.0
  O  O164  1  0.44414400  0.05520600  0.50614600  1.0
  O  O165  1  0.05520600  0.44414400  0.99450400  1.0
  O  O166  1  0.50614600  0.99450400  0.44414400  1.0
  O  O167  1  0.99450400  0.50614600  0.05520600  1.0
