# generated using pymatgen
data_Cu3H72C96N2O15
_symmetry_space_group_name_H-M   'P 1'
_cell_length_a   35.40040000
_cell_length_b   35.40040000
_cell_length_c   35.40040000
_cell_angle_alpha   90.00000000
_cell_angle_beta   90.00000000
_cell_angle_gamma   90.00000000
_symmetry_Int_Tables_number   1
_chemical_formula_structural   Cu3H72C96N2O15
_chemical_formula_sum   'Cu12 H288 C384 N8 O60'
_cell_volume   44363.36780899
_cell_formula_units_Z   4
loop_
 _symmetry_equiv_pos_site_id
 _symmetry_equiv_pos_as_xyz
  1  'x, y, z'
loop_
 _atom_site_type_symbol
 _atom_site_label
 _atom_site_symmetry_multiplicity
 _atom_site_fract_x
 _atom_site_fract_y
 _atom_site_fract_z
 _atom_site_occupancy
  Cu  Cu0  1  0.00000000  0.50000000  0.21228600  1
  Cu  Cu1  1  0.00000000  0.50000000  0.78771400  1
  Cu  Cu2  1  0.21228600  0.00000000  0.50000000  1
  Cu  Cu3  1  0.78771400  0.00000000  0.50000000  1
  Cu  Cu4  1  0.50000000  0.21228600  0.00000000  1
  Cu  Cu5  1  0.50000000  0.78771400  0.00000000  1
  Cu  Cu6  1  0.00000000  0.50000000  0.28771400  1
  Cu  Cu7  1  0.00000000  0.50000000  0.71228600  1
  Cu  Cu8  1  0.50000000  0.71228600  0.00000000  1
  Cu  Cu9  1  0.50000000  0.28771400  0.00000000  1
  Cu  Cu10  1  0.71228600  0.00000000  0.50000000  1
  Cu  Cu11  1  0.28771400  0.00000000  0.50000000  1
  O  O12  1  0.03940150  0.46079140  0.21842180  1
  O  O13  1  0.96059850  0.53920860  0.21842180  1
  O  O14  1  0.96059850  0.46079140  0.78157820  1
  O  O15  1  0.03940150  0.53920860  0.78157820  1
  O  O16  1  0.21842180  0.03940150  0.46079140  1
  O  O17  1  0.21842180  0.96059850  0.53920860  1
  O  O18  1  0.78157820  0.96059850  0.46079140  1
  O  O19  1  0.78157820  0.03940150  0.53920860  1
  O  O20  1  0.46079140  0.21842180  0.03940150  1
  O  O21  1  0.53920860  0.21842180  0.96059850  1
  O  O22  1  0.46079140  0.78157820  0.96059850  1
  O  O23  1  0.53920860  0.78157820  0.03940150  1
  O  O24  1  0.96079140  0.53940150  0.28157820  1
  O  O25  1  0.03920860  0.46059850  0.28157820  1
  O  O26  1  0.96079140  0.46059850  0.71842180  1
  O  O27  1  0.03920860  0.53940150  0.71842180  1
  O  O28  1  0.53940150  0.71842180  0.03920860  1
  O  O29  1  0.46059850  0.71842180  0.96079140  1
  O  O30  1  0.46059850  0.28157820  0.03920860  1
  O  O31  1  0.53940150  0.28157820  0.96079140  1
  O  O32  1  0.71842180  0.96079140  0.46059850  1
  O  O33  1  0.71842180  0.03920860  0.53940150  1
  O  O34  1  0.28157820  0.96079140  0.53940150  1
  O  O35  1  0.28157820  0.03920860  0.46059850  1
  O  O36  1  0.96059850  0.53920860  0.78157820  1
  O  O37  1  0.03940150  0.46079140  0.78157820  1
  O  O38  1  0.03940150  0.53920860  0.21842180  1
  O  O39  1  0.96059850  0.46079140  0.21842180  1
  O  O40  1  0.78157820  0.96059850  0.53920860  1
  O  O41  1  0.78157820  0.03940150  0.46079140  1
  O  O42  1  0.21842180  0.03940150  0.53920860  1
  O  O43  1  0.21842180  0.96059850  0.46079140  1
  O  O44  1  0.53920860  0.78157820  0.96059850  1
  O  O45  1  0.46079140  0.78157820  0.03940150  1
  O  O46  1  0.53920860  0.21842180  0.03940150  1
  O  O47  1  0.46079140  0.21842180  0.96059850  1
  O  O48  1  0.03920860  0.46059850  0.71842180  1
  O  O49  1  0.96079140  0.53940150  0.71842180  1
  O  O50  1  0.03920860  0.53940150  0.28157820  1
  O  O51  1  0.96079140  0.46059850  0.28157820  1
  O  O52  1  0.46059850  0.28157820  0.96079140  1
  O  O53  1  0.53940150  0.28157820  0.03920860  1
  O  O54  1  0.53940150  0.71842180  0.96079140  1
  O  O55  1  0.46059850  0.71842180  0.03920860  1
  O  O56  1  0.28157820  0.03920860  0.53940150  1
  O  O57  1  0.28157820  0.96079140  0.46059850  1
  O  O58  1  0.71842180  0.03920860  0.46059850  1
  O  O59  1  0.71842180  0.96079140  0.53940150  1
  N  N72  1  0.25000000  0.25000000  0.25000000  1
  N  N73  1  0.75000000  0.75000000  0.25000000  1
  N  N74  1  0.75000000  0.25000000  0.75000000  1
  N  N75  1  0.25000000  0.75000000  0.75000000  1
  N  N76  1  0.75000000  0.75000000  0.75000000  1
  N  N77  1  0.25000000  0.25000000  0.75000000  1
  N  N78  1  0.25000000  0.75000000  0.25000000  1
  N  N79  1  0.75000000  0.25000000  0.25000000  1
  C  C80  1  0.05052000  0.44952000  0.25000000  1
  C  C81  1  0.94948000  0.55048000  0.25000000  1
  C  C82  1  0.94948000  0.44952000  0.75000000  1
  C  C83  1  0.05052000  0.55048000  0.75000000  1
  C  C84  1  0.25000000  0.05052000  0.44952000  1
  C  C85  1  0.25000000  0.94948000  0.55048000  1
  C  C86  1  0.75000000  0.94948000  0.44952000  1
  C  C87  1  0.75000000  0.05052000  0.55048000  1
  C  C88  1  0.44952000  0.25000000  0.05052000  1
  C  C89  1  0.55048000  0.25000000  0.94948000  1
  C  C90  1  0.44952000  0.75000000  0.94948000  1
  C  C91  1  0.55048000  0.75000000  0.05052000  1
  C  C92  1  0.94948000  0.55048000  0.75000000  1
  C  C93  1  0.05052000  0.44952000  0.75000000  1
  C  C94  1  0.05052000  0.55048000  0.25000000  1
  C  C95  1  0.94948000  0.44952000  0.25000000  1
  C  C96  1  0.75000000  0.94948000  0.55048000  1
  C  C97  1  0.75000000  0.05052000  0.44952000  1
  C  C98  1  0.25000000  0.05052000  0.55048000  1
  C  C99  1  0.25000000  0.94948000  0.44952000  1
  C  C100  1  0.55048000  0.75000000  0.94948000  1
  C  C101  1  0.44952000  0.75000000  0.05052000  1
  C  C102  1  0.55048000  0.25000000  0.05052000  1
  C  C103  1  0.44952000  0.25000000  0.94948000  1
  C  C104  1  0.08022000  0.41982000  0.25000000  1
  C  C105  1  0.91978000  0.58018000  0.25000000  1
  C  C106  1  0.91978000  0.41982000  0.75000000  1
  C  C107  1  0.08022000  0.58018000  0.75000000  1
  C  C108  1  0.25000000  0.08022000  0.41982000  1
  C  C109  1  0.25000000  0.91978000  0.58018000  1
  C  C110  1  0.75000000  0.91978000  0.41982000  1
  C  C111  1  0.75000000  0.08022000  0.58018000  1
  C  C112  1  0.41982000  0.25000000  0.08022000  1
  C  C113  1  0.58018000  0.25000000  0.91978000  1
  C  C114  1  0.41982000  0.75000000  0.91978000  1
  C  C115  1  0.58018000  0.75000000  0.08022000  1
  C  C116  1  0.91978000  0.58018000  0.75000000  1
  C  C117  1  0.08022000  0.41982000  0.75000000  1
  C  C118  1  0.08022000  0.58018000  0.25000000  1
  C  C119  1  0.91978000  0.41982000  0.25000000  1
  C  C120  1  0.75000000  0.91978000  0.58018000  1
  C  C121  1  0.75000000  0.08022000  0.41982000  1
  C  C122  1  0.25000000  0.08022000  0.58018000  1
  C  C123  1  0.25000000  0.91978000  0.41982000  1
  C  C124  1  0.58018000  0.75000000  0.91978000  1
  C  C125  1  0.41982000  0.75000000  0.08022000  1
  C  C126  1  0.58018000  0.25000000  0.08022000  1
  C  C127  1  0.41982000  0.25000000  0.91978000  1
  C  C128  1  0.09582000  0.40782000  0.21623000  1
  C  C129  1  0.90418000  0.59218000  0.21623000  1
  C  C130  1  0.90418000  0.40782000  0.78377000  1
  C  C131  1  0.09582000  0.59218000  0.78377000  1
  C  C132  1  0.21623000  0.09582000  0.40782000  1
  C  C133  1  0.21623000  0.90418000  0.59218000  1
  C  C134  1  0.78377000  0.90418000  0.40782000  1
  C  C135  1  0.78377000  0.09582000  0.59218000  1
  C  C136  1  0.40782000  0.21623000  0.09582000  1
  C  C137  1  0.59218000  0.21623000  0.90418000  1
  C  C138  1  0.40782000  0.78377000  0.90418000  1
  C  C139  1  0.59218000  0.78377000  0.09582000  1
  C  C140  1  0.90782000  0.59582000  0.28377000  1
  C  C141  1  0.09218000  0.40418000  0.28377000  1
  C  C142  1  0.90782000  0.40418000  0.71623000  1
  C  C143  1  0.09218000  0.59582000  0.71623000  1
  C  C144  1  0.59582000  0.71623000  0.09218000  1
  C  C145  1  0.40418000  0.71623000  0.90782000  1
  C  C146  1  0.40418000  0.28377000  0.09218000  1
  C  C147  1  0.59582000  0.28377000  0.90782000  1
  C  C148  1  0.71623000  0.90782000  0.40418000  1
  C  C149  1  0.71623000  0.09218000  0.59582000  1
  C  C150  1  0.28377000  0.90782000  0.59582000  1
  C  C151  1  0.28377000  0.09218000  0.40418000  1
  C  C152  1  0.90418000  0.59218000  0.78377000  1
  C  C153  1  0.09582000  0.40782000  0.78377000  1
  C  C154  1  0.09582000  0.59218000  0.21623000  1
  C  C155  1  0.90418000  0.40782000  0.21623000  1
  C  C156  1  0.78377000  0.90418000  0.59218000  1
  C  C157  1  0.78377000  0.09582000  0.40782000  1
  C  C158  1  0.21623000  0.09582000  0.59218000  1
  C  C159  1  0.21623000  0.90418000  0.40782000  1
  C  C160  1  0.59218000  0.78377000  0.90418000  1
  C  C161  1  0.40782000  0.78377000  0.09582000  1
  C  C162  1  0.59218000  0.21623000  0.09582000  1
  C  C163  1  0.40782000  0.21623000  0.90418000  1
  C  C164  1  0.09218000  0.40418000  0.71623000  1
  C  C165  1  0.90782000  0.59582000  0.71623000  1
  C  C166  1  0.09218000  0.59582000  0.28377000  1
  C  C167  1  0.90782000  0.40418000  0.28377000  1
  C  C168  1  0.40418000  0.28377000  0.90782000  1
  C  C169  1  0.59582000  0.28377000  0.09218000  1
  C  C170  1  0.59582000  0.71623000  0.90782000  1
  C  C171  1  0.40418000  0.71623000  0.09218000  1
  C  C172  1  0.28377000  0.09218000  0.59582000  1
  C  C173  1  0.28377000  0.90782000  0.40418000  1
  C  C174  1  0.71623000  0.09218000  0.40418000  1
  C  C175  1  0.71623000  0.90782000  0.59582000  1
  H  H176  1  0.08760000  0.41790000  0.19340000  1
  H  H177  1  0.91240000  0.58210000  0.19340000  1
  H  H178  1  0.91240000  0.41790000  0.80660000  1
  H  H179  1  0.08760000  0.58210000  0.80660000  1
  H  H180  1  0.19340000  0.08760000  0.41790000  1
  H  H181  1  0.19340000  0.91240000  0.58210000  1
  H  H182  1  0.80660000  0.91240000  0.41790000  1
  H  H183  1  0.80660000  0.08760000  0.58210000  1
  H  H184  1  0.41790000  0.19340000  0.08760000  1
  H  H185  1  0.58210000  0.19340000  0.91240000  1
  H  H186  1  0.41790000  0.80660000  0.91240000  1
  H  H187  1  0.58210000  0.80660000  0.08760000  1
  H  H188  1  0.91790000  0.58760000  0.30660000  1
  H  H189  1  0.08210000  0.41240000  0.30660000  1
  H  H190  1  0.91790000  0.41240000  0.69340000  1
  H  H191  1  0.08210000  0.58760000  0.69340000  1
  H  H192  1  0.58760000  0.69340000  0.08210000  1
  H  H193  1  0.41240000  0.69340000  0.91790000  1
  H  H194  1  0.41240000  0.30660000  0.08210000  1
  H  H195  1  0.58760000  0.30660000  0.91790000  1
  H  H196  1  0.69340000  0.91790000  0.41240000  1
  H  H197  1  0.69340000  0.08210000  0.58760000  1
  H  H198  1  0.30660000  0.91790000  0.58760000  1
  H  H199  1  0.30660000  0.08210000  0.41240000  1
  H  H200  1  0.91240000  0.58210000  0.80660000  1
  H  H201  1  0.08760000  0.41790000  0.80660000  1
  H  H202  1  0.08760000  0.58210000  0.19340000  1
  H  H203  1  0.91240000  0.41790000  0.19340000  1
  H  H204  1  0.80660000  0.91240000  0.58210000  1
  H  H205  1  0.80660000  0.08760000  0.41790000  1
  H  H206  1  0.19340000  0.08760000  0.58210000  1
  H  H207  1  0.19340000  0.91240000  0.41790000  1
  H  H208  1  0.58210000  0.80660000  0.91240000  1
  H  H209  1  0.41790000  0.80660000  0.08760000  1
  H  H210  1  0.58210000  0.19340000  0.08760000  1
  H  H211  1  0.41790000  0.19340000  0.91240000  1
  H  H212  1  0.08210000  0.41240000  0.69340000  1
  H  H213  1  0.91790000  0.58760000  0.69340000  1
  H  H214  1  0.08210000  0.58760000  0.30660000  1
  H  H215  1  0.91790000  0.41240000  0.30660000  1
  H  H216  1  0.41240000  0.30660000  0.91790000  1
  H  H217  1  0.58760000  0.30660000  0.08210000  1
  H  H218  1  0.58760000  0.69340000  0.91790000  1
  H  H219  1  0.41240000  0.69340000  0.08210000  1
  H  H220  1  0.30660000  0.08210000  0.58760000  1
  H  H221  1  0.30660000  0.91790000  0.41240000  1
  H  H222  1  0.69340000  0.08210000  0.41240000  1
  H  H223  1  0.69340000  0.91790000  0.58760000  1
  C  C224  1  0.12402000  0.38072000  0.21693000  1
  C  C225  1  0.87598000  0.61928000  0.21693000  1
  C  C226  1  0.87598000  0.38072000  0.78307000  1
  C  C227  1  0.12402000  0.61928000  0.78307000  1
  C  C228  1  0.21693000  0.12402000  0.38072000  1
  C  C229  1  0.21693000  0.87598000  0.61928000  1
  C  C230  1  0.78307000  0.87598000  0.38072000  1
  C  C231  1  0.78307000  0.12402000  0.61928000  1
  C  C232  1  0.38072000  0.21693000  0.12402000  1
  C  C233  1  0.61928000  0.21693000  0.87598000  1
  C  C234  1  0.38072000  0.78307000  0.87598000  1
  C  C235  1  0.61928000  0.78307000  0.12402000  1
  C  C236  1  0.88072000  0.62402000  0.28307000  1
  C  C237  1  0.11928000  0.37598000  0.28307000  1
  C  C238  1  0.88072000  0.37598000  0.71693000  1
  C  C239  1  0.11928000  0.62402000  0.71693000  1
  C  C240  1  0.62402000  0.71693000  0.11928000  1
  C  C241  1  0.37598000  0.71693000  0.88072000  1
  C  C242  1  0.37598000  0.28307000  0.11928000  1
  C  C243  1  0.62402000  0.28307000  0.88072000  1
  C  C244  1  0.71693000  0.88072000  0.37598000  1
  C  C245  1  0.71693000  0.11928000  0.62402000  1
  C  C246  1  0.28307000  0.88072000  0.62402000  1
  C  C247  1  0.28307000  0.11928000  0.37598000  1
  C  C248  1  0.87598000  0.61928000  0.78307000  1
  C  C249  1  0.12402000  0.38072000  0.78307000  1
  C  C250  1  0.12402000  0.61928000  0.21693000  1
  C  C251  1  0.87598000  0.38072000  0.21693000  1
  C  C252  1  0.78307000  0.87598000  0.61928000  1
  C  C253  1  0.78307000  0.12402000  0.38072000  1
  C  C254  1  0.21693000  0.12402000  0.61928000  1
  C  C255  1  0.21693000  0.87598000  0.38072000  1
  C  C256  1  0.61928000  0.78307000  0.87598000  1
  C  C257  1  0.38072000  0.78307000  0.12402000  1
  C  C258  1  0.61928000  0.21693000  0.12402000  1
  C  C259  1  0.38072000  0.21693000  0.87598000  1
  C  C260  1  0.11928000  0.37598000  0.71693000  1
  C  C261  1  0.88072000  0.62402000  0.71693000  1
  C  C262  1  0.11928000  0.62402000  0.28307000  1
  C  C263  1  0.88072000  0.37598000  0.28307000  1
  C  C264  1  0.37598000  0.28307000  0.88072000  1
  C  C265  1  0.62402000  0.28307000  0.11928000  1
  C  C266  1  0.62402000  0.71693000  0.88072000  1
  C  C267  1  0.37598000  0.71693000  0.11928000  1
  C  C268  1  0.28307000  0.11928000  0.62402000  1
  C  C269  1  0.28307000  0.88072000  0.37598000  1
  C  C270  1  0.71693000  0.11928000  0.37598000  1
  C  C271  1  0.71693000  0.88072000  0.62402000  1
  H  H272  1  0.13510000  0.37340000  0.19420000  1
  H  H273  1  0.86490000  0.62660000  0.19420000  1
  H  H274  1  0.86490000  0.37340000  0.80580000  1
  H  H275  1  0.13510000  0.62660000  0.80580000  1
  H  H276  1  0.19420000  0.13510000  0.37340000  1
  H  H277  1  0.19420000  0.86490000  0.62660000  1
  H  H278  1  0.80580000  0.86490000  0.37340000  1
  H  H279  1  0.80580000  0.13510000  0.62660000  1
  H  H280  1  0.37340000  0.19420000  0.13510000  1
  H  H281  1  0.62660000  0.19420000  0.86490000  1
  H  H282  1  0.37340000  0.80580000  0.86490000  1
  H  H283  1  0.62660000  0.80580000  0.13510000  1
  H  H284  1  0.87340000  0.63510000  0.30580000  1
  H  H285  1  0.12660000  0.36490000  0.30580000  1
  H  H286  1  0.87340000  0.36490000  0.69420000  1
  H  H287  1  0.12660000  0.63510000  0.69420000  1
  H  H288  1  0.63510000  0.69420000  0.12660000  1
  H  H289  1  0.36490000  0.69420000  0.87340000  1
  H  H290  1  0.36490000  0.30580000  0.12660000  1
  H  H291  1  0.63510000  0.30580000  0.87340000  1
  H  H292  1  0.69420000  0.87340000  0.36490000  1
  H  H293  1  0.69420000  0.12660000  0.63510000  1
  H  H294  1  0.30580000  0.87340000  0.63510000  1
  H  H295  1  0.30580000  0.12660000  0.36490000  1
  H  H296  1  0.86490000  0.62660000  0.80580000  1
  H  H297  1  0.13510000  0.37340000  0.80580000  1
  H  H298  1  0.13510000  0.62660000  0.19420000  1
  H  H299  1  0.86490000  0.37340000  0.19420000  1
  H  H300  1  0.80580000  0.86490000  0.62660000  1
  H  H301  1  0.80580000  0.13510000  0.37340000  1
  H  H302  1  0.19420000  0.13510000  0.62660000  1
  H  H303  1  0.19420000  0.86490000  0.37340000  1
  H  H304  1  0.62660000  0.80580000  0.86490000  1
  H  H305  1  0.37340000  0.80580000  0.13510000  1
  H  H306  1  0.62660000  0.19420000  0.13510000  1
  H  H307  1  0.37340000  0.19420000  0.86490000  1
  H  H308  1  0.12660000  0.36490000  0.69420000  1
  H  H309  1  0.87340000  0.63510000  0.69420000  1
  H  H310  1  0.12660000  0.63510000  0.30580000  1
  H  H311  1  0.87340000  0.36490000  0.30580000  1
  H  H312  1  0.36490000  0.30580000  0.87340000  1
  H  H313  1  0.63510000  0.30580000  0.12660000  1
  H  H314  1  0.63510000  0.69420000  0.87340000  1
  H  H315  1  0.36490000  0.69420000  0.12660000  1
  H  H316  1  0.30580000  0.12660000  0.63510000  1
  H  H317  1  0.30580000  0.87340000  0.36490000  1
  H  H318  1  0.69420000  0.12660000  0.36490000  1
  H  H319  1  0.69420000  0.87340000  0.63510000  1
  C  C320  1  0.13602000  0.36402000  0.25000000  1
  C  C321  1  0.86398000  0.63598000  0.25000000  1
  C  C322  1  0.86398000  0.36402000  0.75000000  1
  C  C323  1  0.13602000  0.63598000  0.75000000  1
  C  C324  1  0.25000000  0.13602000  0.36402000  1
  C  C325  1  0.25000000  0.86398000  0.63598000  1
  C  C326  1  0.75000000  0.86398000  0.36402000  1
  C  C327  1  0.75000000  0.13602000  0.63598000  1
  C  C328  1  0.36402000  0.25000000  0.13602000  1
  C  C329  1  0.63598000  0.25000000  0.86398000  1
  C  C330  1  0.36402000  0.75000000  0.86398000  1
  C  C331  1  0.63598000  0.75000000  0.13602000  1
  C  C332  1  0.86398000  0.63598000  0.75000000  1
  C  C333  1  0.13602000  0.36402000  0.75000000  1
  C  C334  1  0.13602000  0.63598000  0.25000000  1
  C  C335  1  0.86398000  0.36402000  0.25000000  1
  C  C336  1  0.75000000  0.86398000  0.63598000  1
  C  C337  1  0.75000000  0.13602000  0.36402000  1
  C  C338  1  0.25000000  0.13602000  0.63598000  1
  C  C339  1  0.25000000  0.86398000  0.36402000  1
  C  C340  1  0.63598000  0.75000000  0.86398000  1
  C  C341  1  0.36402000  0.75000000  0.13602000  1
  C  C342  1  0.63598000  0.25000000  0.13602000  1
  C  C343  1  0.36402000  0.25000000  0.86398000  1
  C  C344  1  0.16552000  0.33452000  0.25000000  1
  C  C345  1  0.83448000  0.66548000  0.25000000  1
  C  C346  1  0.83448000  0.33452000  0.75000000  1
  C  C347  1  0.16552000  0.66548000  0.75000000  1
  C  C348  1  0.25000000  0.16552000  0.33452000  1
  C  C349  1  0.25000000  0.83448000  0.66548000  1
  C  C350  1  0.75000000  0.83448000  0.33452000  1
  C  C351  1  0.75000000  0.16552000  0.66548000  1
  C  C352  1  0.33452000  0.25000000  0.16552000  1
  C  C353  1  0.66548000  0.25000000  0.83448000  1
  C  C354  1  0.33452000  0.75000000  0.83448000  1
  C  C355  1  0.66548000  0.75000000  0.16552000  1
  C  C356  1  0.83448000  0.66548000  0.75000000  1
  C  C357  1  0.16552000  0.33452000  0.75000000  1
  C  C358  1  0.16552000  0.66548000  0.25000000  1
  C  C359  1  0.83448000  0.33452000  0.25000000  1
  C  C360  1  0.75000000  0.83448000  0.66548000  1
  C  C361  1  0.75000000  0.16552000  0.33452000  1
  C  C362  1  0.25000000  0.16552000  0.66548000  1
  C  C363  1  0.25000000  0.83448000  0.33452000  1
  C  C364  1  0.66548000  0.75000000  0.83448000  1
  C  C365  1  0.33452000  0.75000000  0.16552000  1
  C  C366  1  0.66548000  0.25000000  0.16552000  1
  C  C367  1  0.33452000  0.25000000  0.83448000  1
  C  C368  1  0.19263000  0.33293000  0.22213000  1
  C  C369  1  0.80737000  0.66707000  0.22213000  1
  C  C370  1  0.80737000  0.33293000  0.77787000  1
  C  C371  1  0.19263000  0.66707000  0.77787000  1
  C  C372  1  0.22213000  0.19263000  0.33293000  1
  C  C373  1  0.22213000  0.80737000  0.66707000  1
  C  C374  1  0.77787000  0.80737000  0.33293000  1
  C  C375  1  0.77787000  0.19263000  0.66707000  1
  C  C376  1  0.33293000  0.22213000  0.19263000  1
  C  C377  1  0.66707000  0.22213000  0.80737000  1
  C  C378  1  0.33293000  0.77787000  0.80737000  1
  C  C379  1  0.66707000  0.77787000  0.19263000  1
  C  C380  1  0.83293000  0.69263000  0.27787000  1
  C  C381  1  0.16707000  0.30737000  0.27787000  1
  C  C382  1  0.83293000  0.30737000  0.72213000  1
  C  C383  1  0.16707000  0.69263000  0.72213000  1
  C  C384  1  0.69263000  0.72213000  0.16707000  1
  C  C385  1  0.30737000  0.72213000  0.83293000  1
  C  C386  1  0.30737000  0.27787000  0.16707000  1
  C  C387  1  0.69263000  0.27787000  0.83293000  1
  C  C388  1  0.72213000  0.83293000  0.30737000  1
  C  C389  1  0.72213000  0.16707000  0.69263000  1
  C  C390  1  0.27787000  0.83293000  0.69263000  1
  C  C391  1  0.27787000  0.16707000  0.30737000  1
  C  C392  1  0.80737000  0.66707000  0.77787000  1
  C  C393  1  0.19263000  0.33293000  0.77787000  1
  C  C394  1  0.19263000  0.66707000  0.22213000  1
  C  C395  1  0.80737000  0.33293000  0.22213000  1
  C  C396  1  0.77787000  0.80737000  0.66707000  1
  C  C397  1  0.77787000  0.19263000  0.33293000  1
  C  C398  1  0.22213000  0.19263000  0.66707000  1
  C  C399  1  0.22213000  0.80737000  0.33293000  1
  C  C400  1  0.66707000  0.77787000  0.80737000  1
  C  C401  1  0.33293000  0.77787000  0.19263000  1
  C  C402  1  0.66707000  0.22213000  0.19263000  1
  C  C403  1  0.33293000  0.22213000  0.80737000  1
  C  C404  1  0.16707000  0.30737000  0.72213000  1
  C  C405  1  0.83293000  0.69263000  0.72213000  1
  C  C406  1  0.16707000  0.69263000  0.27787000  1
  C  C407  1  0.83293000  0.30737000  0.27787000  1
  C  C408  1  0.30737000  0.27787000  0.83293000  1
  C  C409  1  0.69263000  0.27787000  0.16707000  1
  C  C410  1  0.69263000  0.72213000  0.83293000  1
  C  C411  1  0.30737000  0.72213000  0.16707000  1
  C  C412  1  0.27787000  0.16707000  0.69263000  1
  C  C413  1  0.27787000  0.83293000  0.30737000  1
  C  C414  1  0.72213000  0.16707000  0.30737000  1
  C  C415  1  0.72213000  0.83293000  0.69263000  1
  H  H416  1  0.19290000  0.35070000  0.20280000  1
  H  H417  1  0.80710000  0.64930000  0.20280000  1
  H  H418  1  0.80710000  0.35070000  0.79720000  1
  H  H419  1  0.19290000  0.64930000  0.79720000  1
  H  H420  1  0.20280000  0.19290000  0.35070000  1
  H  H421  1  0.20280000  0.80710000  0.64930000  1
  H  H422  1  0.79720000  0.80710000  0.35070000  1
  H  H423  1  0.79720000  0.19290000  0.64930000  1
  H  H424  1  0.35070000  0.20280000  0.19290000  1
  H  H425  1  0.64930000  0.20280000  0.80710000  1
  H  H426  1  0.35070000  0.79720000  0.80710000  1
  H  H427  1  0.64930000  0.79720000  0.19290000  1
  H  H428  1  0.85070000  0.69290000  0.29720000  1
  H  H429  1  0.14930000  0.30710000  0.29720000  1
  H  H430  1  0.85070000  0.30710000  0.70280000  1
  H  H431  1  0.14930000  0.69290000  0.70280000  1
  H  H432  1  0.69290000  0.70280000  0.14930000  1
  H  H433  1  0.30710000  0.70280000  0.85070000  1
  H  H434  1  0.30710000  0.29720000  0.14930000  1
  H  H435  1  0.69290000  0.29720000  0.85070000  1
  H  H436  1  0.70280000  0.85070000  0.30710000  1
  H  H437  1  0.70280000  0.14930000  0.69290000  1
  H  H438  1  0.29720000  0.85070000  0.69290000  1
  H  H439  1  0.29720000  0.14930000  0.30710000  1
  H  H440  1  0.80710000  0.64930000  0.79720000  1
  H  H441  1  0.19290000  0.35070000  0.79720000  1
  H  H442  1  0.19290000  0.64930000  0.20280000  1
  H  H443  1  0.80710000  0.35070000  0.20280000  1
  H  H444  1  0.79720000  0.80710000  0.64930000  1
  H  H445  1  0.79720000  0.19290000  0.35070000  1
  H  H446  1  0.20280000  0.19290000  0.64930000  1
  H  H447  1  0.20280000  0.80710000  0.35070000  1
  H  H448  1  0.64930000  0.79720000  0.80710000  1
  H  H449  1  0.35070000  0.79720000  0.19290000  1
  H  H450  1  0.64930000  0.20280000  0.19290000  1
  H  H451  1  0.35070000  0.20280000  0.80710000  1
  H  H452  1  0.14930000  0.30710000  0.70280000  1
  H  H453  1  0.85070000  0.69290000  0.70280000  1
  H  H454  1  0.14930000  0.69290000  0.29720000  1
  H  H455  1  0.85070000  0.30710000  0.29720000  1
  H  H456  1  0.30710000  0.29720000  0.85070000  1
  H  H457  1  0.69290000  0.29720000  0.14930000  1
  H  H458  1  0.69290000  0.70280000  0.85070000  1
  H  H459  1  0.30710000  0.70280000  0.14930000  1
  H  H460  1  0.29720000  0.14930000  0.69290000  1
  H  H461  1  0.29720000  0.85070000  0.30710000  1
  H  H462  1  0.70280000  0.14930000  0.30710000  1
  H  H463  1  0.70280000  0.85070000  0.69290000  1
  C  C464  1  0.21983000  0.30403000  0.22323000  1
  C  C465  1  0.78017000  0.69597000  0.22323000  1
  C  C466  1  0.78017000  0.30403000  0.77677000  1
  C  C467  1  0.21983000  0.69597000  0.77677000  1
  C  C468  1  0.22323000  0.21983000  0.30403000  1
  C  C469  1  0.22323000  0.78017000  0.69597000  1
  C  C470  1  0.77677000  0.78017000  0.30403000  1
  C  C471  1  0.77677000  0.21983000  0.69597000  1
  C  C472  1  0.30403000  0.22323000  0.21983000  1
  C  C473  1  0.69597000  0.22323000  0.78017000  1
  C  C474  1  0.30403000  0.77677000  0.78017000  1
  C  C475  1  0.69597000  0.77677000  0.21983000  1
  C  C476  1  0.80403000  0.71983000  0.27677000  1
  C  C477  1  0.19597000  0.28017000  0.27677000  1
  C  C478  1  0.80403000  0.28017000  0.72323000  1
  C  C479  1  0.19597000  0.71983000  0.72323000  1
  C  C480  1  0.71983000  0.72323000  0.19597000  1
  C  C481  1  0.28017000  0.72323000  0.80403000  1
  C  C482  1  0.28017000  0.27677000  0.19597000  1
  C  C483  1  0.71983000  0.27677000  0.80403000  1
  C  C484  1  0.72323000  0.80403000  0.28017000  1
  C  C485  1  0.72323000  0.19597000  0.71983000  1
  C  C486  1  0.27677000  0.80403000  0.71983000  1
  C  C487  1  0.27677000  0.19597000  0.28017000  1
  C  C488  1  0.78017000  0.69597000  0.77677000  1
  C  C489  1  0.21983000  0.30403000  0.77677000  1
  C  C490  1  0.21983000  0.69597000  0.22323000  1
  C  C491  1  0.78017000  0.30403000  0.22323000  1
  C  C492  1  0.77677000  0.78017000  0.69597000  1
  C  C493  1  0.77677000  0.21983000  0.30403000  1
  C  C494  1  0.22323000  0.21983000  0.69597000  1
  C  C495  1  0.22323000  0.78017000  0.30403000  1
  C  C496  1  0.69597000  0.77677000  0.78017000  1
  C  C497  1  0.30403000  0.77677000  0.21983000  1
  C  C498  1  0.69597000  0.22323000  0.21983000  1
  C  C499  1  0.30403000  0.22323000  0.78017000  1
  C  C500  1  0.19597000  0.28017000  0.72323000  1
  C  C501  1  0.80403000  0.71983000  0.72323000  1
  C  C502  1  0.19597000  0.71983000  0.27677000  1
  C  C503  1  0.80403000  0.28017000  0.27677000  1
  C  C504  1  0.28017000  0.27677000  0.80403000  1
  C  C505  1  0.71983000  0.27677000  0.19597000  1
  C  C506  1  0.71983000  0.72323000  0.80403000  1
  C  C507  1  0.28017000  0.72323000  0.19597000  1
  C  C508  1  0.27677000  0.19597000  0.71983000  1
  C  C509  1  0.27677000  0.80403000  0.28017000  1
  C  C510  1  0.72323000  0.19597000  0.28017000  1
  C  C511  1  0.72323000  0.80403000  0.71983000  1
  C  C512  1  0.22353000  0.27653000  0.25000000  1
  C  C513  1  0.77647000  0.72347000  0.25000000  1
  C  C514  1  0.77647000  0.27653000  0.75000000  1
  C  C515  1  0.22353000  0.72347000  0.75000000  1
  C  C516  1  0.25000000  0.22353000  0.27653000  1
  C  C517  1  0.25000000  0.77647000  0.72347000  1
  C  C518  1  0.75000000  0.77647000  0.27653000  1
  C  C519  1  0.75000000  0.22353000  0.72347000  1
  C  C520  1  0.27653000  0.25000000  0.22353000  1
  C  C521  1  0.72347000  0.25000000  0.77647000  1
  C  C522  1  0.27653000  0.75000000  0.77647000  1
  C  C523  1  0.72347000  0.75000000  0.22353000  1
  C  C524  1  0.77647000  0.72347000  0.75000000  1
  C  C525  1  0.22353000  0.27653000  0.75000000  1
  C  C526  1  0.22353000  0.72347000  0.25000000  1
  C  C527  1  0.77647000  0.27653000  0.25000000  1
  C  C528  1  0.75000000  0.77647000  0.72347000  1
  C  C529  1  0.75000000  0.22353000  0.27653000  1
  C  C530  1  0.25000000  0.22353000  0.72347000  1
  C  C531  1  0.25000000  0.77647000  0.27653000  1
  C  C532  1  0.72347000  0.75000000  0.77647000  1
  C  C533  1  0.27653000  0.75000000  0.22353000  1
  C  C534  1  0.72347000  0.25000000  0.22353000  1
  C  C535  1  0.27653000  0.25000000  0.77647000  1
  C  C536  1  0.25000000  0.30643000  0.19363000  1
  C  C537  1  0.75000000  0.69357000  0.19363000  1
  C  C538  1  0.75000000  0.30643000  0.80637000  1
  C  C539  1  0.25000000  0.69357000  0.80637000  1
  C  C540  1  0.19363000  0.25000000  0.30643000  1
  C  C541  1  0.19363000  0.75000000  0.69357000  1
  C  C542  1  0.80637000  0.75000000  0.30643000  1
  C  C543  1  0.80637000  0.25000000  0.69357000  1
  C  C544  1  0.30643000  0.19363000  0.25000000  1
  C  C545  1  0.69357000  0.19363000  0.75000000  1
  C  C546  1  0.30643000  0.80637000  0.75000000  1
  C  C547  1  0.69357000  0.80637000  0.25000000  1
  C  C548  1  0.75000000  0.69357000  0.80637000  1
  C  C549  1  0.25000000  0.30643000  0.80637000  1
  C  C550  1  0.25000000  0.69357000  0.19363000  1
  C  C551  1  0.75000000  0.30643000  0.19363000  1
  C  C552  1  0.80637000  0.75000000  0.69357000  1
  C  C553  1  0.80637000  0.25000000  0.30643000  1
  C  C554  1  0.19363000  0.25000000  0.69357000  1
  C  C555  1  0.19363000  0.75000000  0.30643000  1
  C  C556  1  0.69357000  0.80637000  0.75000000  1
  C  C557  1  0.30643000  0.80637000  0.25000000  1
  C  C558  1  0.69357000  0.19363000  0.25000000  1
  C  C559  1  0.30643000  0.19363000  0.75000000  1
  C  C560  1  0.26954000  0.34784000  0.19384000  1
  C  C561  1  0.73046000  0.65216000  0.19384000  1
  C  C562  1  0.73046000  0.34784000  0.80616000  1
  C  C563  1  0.26954000  0.65216000  0.80616000  1
  C  C564  1  0.19384000  0.26954000  0.34784000  1
  C  C565  1  0.19384000  0.73046000  0.65216000  1
  C  C566  1  0.80616000  0.73046000  0.34784000  1
  C  C567  1  0.80616000  0.26954000  0.65216000  1
  C  C568  1  0.34784000  0.19384000  0.26954000  1
  C  C569  1  0.65216000  0.19384000  0.73046000  1
  C  C570  1  0.34784000  0.80616000  0.73046000  1
  C  C571  1  0.65216000  0.80616000  0.26954000  1
  C  C572  1  0.84784000  0.76954000  0.30616000  1
  C  C573  1  0.15216000  0.23046000  0.30616000  1
  C  C574  1  0.84784000  0.23046000  0.69384000  1
  C  C575  1  0.15216000  0.76954000  0.69384000  1
  C  C576  1  0.76954000  0.69384000  0.15216000  1
  C  C577  1  0.23046000  0.69384000  0.84784000  1
  C  C578  1  0.23046000  0.30616000  0.15216000  1
  C  C579  1  0.76954000  0.30616000  0.84784000  1
  C  C580  1  0.69384000  0.84784000  0.23046000  1
  C  C581  1  0.69384000  0.15216000  0.76954000  1
  C  C582  1  0.30616000  0.84784000  0.76954000  1
  C  C583  1  0.30616000  0.15216000  0.23046000  1
  C  C584  1  0.73046000  0.65216000  0.80616000  1
  C  C585  1  0.26954000  0.34784000  0.80616000  1
  C  C586  1  0.26954000  0.65216000  0.19384000  1
  C  C587  1  0.73046000  0.34784000  0.19384000  1
  C  C588  1  0.80616000  0.73046000  0.65216000  1
  C  C589  1  0.80616000  0.26954000  0.34784000  1
  C  C590  1  0.19384000  0.26954000  0.65216000  1
  C  C591  1  0.19384000  0.73046000  0.34784000  1
  C  C592  1  0.65216000  0.80616000  0.73046000  1
  C  C593  1  0.34784000  0.80616000  0.26954000  1
  C  C594  1  0.65216000  0.19384000  0.26954000  1
  C  C595  1  0.34784000  0.19384000  0.73046000  1
  C  C596  1  0.15216000  0.23046000  0.69384000  1
  C  C597  1  0.84784000  0.76954000  0.69384000  1
  C  C598  1  0.15216000  0.76954000  0.30616000  1
  C  C599  1  0.84784000  0.23046000  0.30616000  1
  C  C600  1  0.23046000  0.30616000  0.84784000  1
  C  C601  1  0.76954000  0.30616000  0.15216000  1
  C  C602  1  0.76954000  0.69384000  0.84784000  1
  C  C603  1  0.23046000  0.69384000  0.15216000  1
  C  C604  1  0.30616000  0.15216000  0.76954000  1
  C  C605  1  0.30616000  0.84784000  0.23046000  1
  C  C606  1  0.69384000  0.15216000  0.23046000  1
  C  C607  1  0.69384000  0.84784000  0.76954000  1
  H  H608  1  0.25030000  0.36680000  0.19230000  1
  H  H609  1  0.74970000  0.63320000  0.19230000  1
  H  H610  1  0.74970000  0.36680000  0.80770000  1
  H  H611  1  0.25030000  0.63320000  0.80770000  1
  H  H612  1  0.19230000  0.25030000  0.36680000  1
  H  H613  1  0.19230000  0.74970000  0.63320000  1
  H  H614  1  0.80770000  0.74970000  0.36680000  1
  H  H615  1  0.80770000  0.25030000  0.63320000  1
  H  H616  1  0.36680000  0.19230000  0.25030000  1
  H  H617  1  0.63320000  0.19230000  0.74970000  1
  H  H618  1  0.36680000  0.80770000  0.74970000  1
  H  H619  1  0.63320000  0.80770000  0.25030000  1
  H  H620  1  0.86680000  0.75030000  0.30770000  1
  H  H621  1  0.13320000  0.24970000  0.30770000  1
  H  H622  1  0.86680000  0.24970000  0.69230000  1
  H  H623  1  0.13320000  0.75030000  0.69230000  1
  H  H624  1  0.75030000  0.69230000  0.13320000  1
  H  H625  1  0.24970000  0.69230000  0.86680000  1
  H  H626  1  0.24970000  0.30770000  0.13320000  1
  H  H627  1  0.75030000  0.30770000  0.86680000  1
  H  H628  1  0.69230000  0.86680000  0.24970000  1
  H  H629  1  0.69230000  0.13320000  0.75030000  1
  H  H630  1  0.30770000  0.86680000  0.75030000  1
  H  H631  1  0.30770000  0.13320000  0.24970000  1
  H  H632  1  0.74970000  0.63320000  0.80770000  1
  H  H633  1  0.25030000  0.36680000  0.80770000  1
  H  H634  1  0.25030000  0.63320000  0.19230000  1
  H  H635  1  0.74970000  0.36680000  0.19230000  1
  H  H636  1  0.80770000  0.74970000  0.63320000  1
  H  H637  1  0.80770000  0.25030000  0.36680000  1
  H  H638  1  0.19230000  0.25030000  0.63320000  1
  H  H639  1  0.19230000  0.74970000  0.36680000  1
  H  H640  1  0.63320000  0.80770000  0.74970000  1
  H  H641  1  0.36680000  0.80770000  0.25030000  1
  H  H642  1  0.63320000  0.19230000  0.25030000  1
  H  H643  1  0.36680000  0.19230000  0.74970000  1
  H  H644  1  0.13320000  0.24970000  0.69230000  1
  H  H645  1  0.86680000  0.75030000  0.69230000  1
  H  H646  1  0.13320000  0.75030000  0.30770000  1
  H  H647  1  0.86680000  0.24970000  0.30770000  1
  H  H648  1  0.24970000  0.30770000  0.86680000  1
  H  H649  1  0.75030000  0.30770000  0.13320000  1
  H  H650  1  0.75030000  0.69230000  0.86680000  1
  H  H651  1  0.24970000  0.69230000  0.13320000  1
  H  H652  1  0.30770000  0.13320000  0.75030000  1
  H  H653  1  0.30770000  0.86680000  0.24970000  1
  H  H654  1  0.69230000  0.13320000  0.24970000  1
  H  H655  1  0.69230000  0.86680000  0.75030000  1
  H  H656  1  0.28360000  0.35100000  0.21670000  1
  H  H657  1  0.71640000  0.64900000  0.21670000  1
  H  H658  1  0.71640000  0.35100000  0.78330000  1
  H  H659  1  0.28360000  0.64900000  0.78330000  1
  H  H660  1  0.21670000  0.28360000  0.35100000  1
  H  H661  1  0.21670000  0.71640000  0.64900000  1
  H  H662  1  0.78330000  0.71640000  0.35100000  1
  H  H663  1  0.78330000  0.28360000  0.64900000  1
  H  H664  1  0.35100000  0.21670000  0.28360000  1
  H  H665  1  0.64900000  0.21670000  0.71640000  1
  H  H666  1  0.35100000  0.78330000  0.71640000  1
  H  H667  1  0.64900000  0.78330000  0.28360000  1
  H  H668  1  0.85100000  0.78360000  0.28330000  1
  H  H669  1  0.14900000  0.21640000  0.28330000  1
  H  H670  1  0.85100000  0.21640000  0.71670000  1
  H  H671  1  0.14900000  0.78360000  0.71670000  1
  H  H672  1  0.78360000  0.71670000  0.14900000  1
  H  H673  1  0.21640000  0.71670000  0.85100000  1
  H  H674  1  0.21640000  0.28330000  0.14900000  1
  H  H675  1  0.78360000  0.28330000  0.85100000  1
  H  H676  1  0.71670000  0.85100000  0.21640000  1
  H  H677  1  0.71670000  0.14900000  0.78360000  1
  H  H678  1  0.28330000  0.85100000  0.78360000  1
  H  H679  1  0.28330000  0.14900000  0.21640000  1
  H  H680  1  0.71640000  0.64900000  0.78330000  1
  H  H681  1  0.28360000  0.35100000  0.78330000  1
  H  H682  1  0.28360000  0.64900000  0.21670000  1
  H  H683  1  0.71640000  0.35100000  0.21670000  1
  H  H684  1  0.78330000  0.71640000  0.64900000  1
  H  H685  1  0.78330000  0.28360000  0.35100000  1
  H  H686  1  0.21670000  0.28360000  0.64900000  1
  H  H687  1  0.21670000  0.71640000  0.35100000  1
  H  H688  1  0.64900000  0.78330000  0.71640000  1
  H  H689  1  0.35100000  0.78330000  0.28360000  1
  H  H690  1  0.64900000  0.21670000  0.28360000  1
  H  H691  1  0.35100000  0.21670000  0.71640000  1
  H  H692  1  0.14900000  0.21640000  0.71670000  1
  H  H693  1  0.85100000  0.78360000  0.71670000  1
  H  H694  1  0.14900000  0.78360000  0.28330000  1
  H  H695  1  0.85100000  0.21640000  0.28330000  1
  H  H696  1  0.21640000  0.28330000  0.85100000  1
  H  H697  1  0.78360000  0.28330000  0.14900000  1
  H  H698  1  0.78360000  0.71670000  0.85100000  1
  H  H699  1  0.21640000  0.71670000  0.14900000  1
  H  H700  1  0.28330000  0.14900000  0.78360000  1
  H  H701  1  0.28330000  0.85100000  0.21640000  1
  H  H702  1  0.71670000  0.14900000  0.21640000  1
  H  H703  1  0.71670000  0.85100000  0.78360000  1
  H  H704  1  0.28620000  0.35000000  0.17250000  1
  H  H705  1  0.71380000  0.65000000  0.17250000  1
  H  H706  1  0.71380000  0.35000000  0.82750000  1
  H  H707  1  0.28620000  0.65000000  0.82750000  1
  H  H708  1  0.17250000  0.28620000  0.35000000  1
  H  H709  1  0.17250000  0.71380000  0.65000000  1
  H  H710  1  0.82750000  0.71380000  0.35000000  1
  H  H711  1  0.82750000  0.28620000  0.65000000  1
  H  H712  1  0.35000000  0.17250000  0.28620000  1
  H  H713  1  0.65000000  0.17250000  0.71380000  1
  H  H714  1  0.35000000  0.82750000  0.71380000  1
  H  H715  1  0.65000000  0.82750000  0.28620000  1
  H  H716  1  0.85000000  0.78620000  0.32750000  1
  H  H717  1  0.15000000  0.21380000  0.32750000  1
  H  H718  1  0.85000000  0.21380000  0.67250000  1
  H  H719  1  0.15000000  0.78620000  0.67250000  1
  H  H720  1  0.78620000  0.67250000  0.15000000  1
  H  H721  1  0.21380000  0.67250000  0.85000000  1
  H  H722  1  0.21380000  0.32750000  0.15000000  1
  H  H723  1  0.78620000  0.32750000  0.85000000  1
  H  H724  1  0.67250000  0.85000000  0.21380000  1
  H  H725  1  0.67250000  0.15000000  0.78620000  1
  H  H726  1  0.32750000  0.85000000  0.78620000  1
  H  H727  1  0.32750000  0.15000000  0.21380000  1
  H  H728  1  0.71380000  0.65000000  0.82750000  1
  H  H729  1  0.28620000  0.35000000  0.82750000  1
  H  H730  1  0.28620000  0.65000000  0.17250000  1
  H  H731  1  0.71380000  0.35000000  0.17250000  1
  H  H732  1  0.82750000  0.71380000  0.65000000  1
  H  H733  1  0.82750000  0.28620000  0.35000000  1
  H  H734  1  0.17250000  0.28620000  0.65000000  1
  H  H735  1  0.17250000  0.71380000  0.35000000  1
  H  H736  1  0.65000000  0.82750000  0.71380000  1
  H  H737  1  0.35000000  0.82750000  0.28620000  1
  H  H738  1  0.65000000  0.17250000  0.28620000  1
  H  H739  1  0.35000000  0.17250000  0.71380000  1
  H  H740  1  0.15000000  0.21380000  0.67250000  1
  H  H741  1  0.85000000  0.78620000  0.67250000  1
  H  H742  1  0.15000000  0.78620000  0.32750000  1
  H  H743  1  0.85000000  0.21380000  0.32750000  1
  H  H744  1  0.21380000  0.32750000  0.85000000  1
  H  H745  1  0.78620000  0.32750000  0.15000000  1
  H  H746  1  0.78620000  0.67250000  0.85000000  1
  H  H747  1  0.21380000  0.67250000  0.15000000  1
  H  H748  1  0.32750000  0.15000000  0.78620000  1
  H  H749  1  0.32750000  0.85000000  0.21380000  1
  H  H750  1  0.67250000  0.15000000  0.21380000  1
  H  H751  1  0.67250000  0.85000000  0.78620000  1
