# generated using pymatgen
data_FeH34Au2C26(N2O)4
_symmetry_space_group_name_H-M   'P 1'
_cell_length_a   15.01351000
_cell_length_b   14.92458000
_cell_length_c   31.45571700
_cell_angle_alpha   90.00000000
_cell_angle_beta   98.20660000
_cell_angle_gamma   90.00000000
_symmetry_Int_Tables_number   1
_chemical_formula_structural   FeH34Au2C26(N2O)4
_chemical_formula_sum   'Fe8 H272 Au16 C208 N64 O32'
_cell_volume   6976.11695565
_cell_formula_units_Z   8
loop_
 _symmetry_equiv_pos_site_id
 _symmetry_equiv_pos_as_xyz
  1  'x, y, z'
loop_
 _atom_site_type_symbol
 _atom_site_label
 _atom_site_symmetry_multiplicity
 _atom_site_fract_x
 _atom_site_fract_y
 _atom_site_fract_z
 _atom_site_occupancy
  Fe  Fe0  1  0.19150110  0.02066110  0.45083500  1
  Fe  Fe1  1  0.80849890  0.02066110  0.04916500  1
  Fe  Fe2  1  0.69150110  0.52066110  0.45083500  1
  Fe  Fe3  1  0.30849890  0.52066110  0.04916500  1
  Fe  Fe4  1  0.80849890  0.97933890  0.54916500  1
  Fe  Fe5  1  0.19150110  0.97933890  0.95083500  1
  Fe  Fe6  1  0.30849890  0.47933890  0.54916500  1
  Fe  Fe7  1  0.69150110  0.47933890  0.95083500  1
  Au  Au8  1  0.94625600  0.27261400  0.45604418  1
  Au  Au9  1  0.05374400  0.27261400  0.04395582  1
  Au  Au10  1  0.44625600  0.77261400  0.45604418  1
  Au  Au11  1  0.55374400  0.77261400  0.04395582  1
  Au  Au12  1  0.05374400  0.72738600  0.54395582  1
  Au  Au13  1  0.94625600  0.72738600  0.95604418  1
  Au  Au14  1  0.55374400  0.22738600  0.54395582  1
  Au  Au15  1  0.44625600  0.22738600  0.95604418  1
  Au  Au16  1  0.44965400  0.26255400  0.44758217  1
  Au  Au17  1  0.55034600  0.26255400  0.05241783  1
  Au  Au18  1  0.94965400  0.76255400  0.44758217  1
  Au  Au19  1  0.05034600  0.76255400  0.05241783  1
  Au  Au20  1  0.55034600  0.73744600  0.55241783  1
  Au  Au21  1  0.44965400  0.73744600  0.94758217  1
  Au  Au22  1  0.05034600  0.23744600  0.55241783  1
  Au  Au23  1  0.94965400  0.23744600  0.94758217  1
  C  C24  1  0.35661000  0.16829000  0.45094000  1
  C  C25  1  0.64339000  0.16829000  0.04906000  1
  C  C26  1  0.85661000  0.66829000  0.45094000  1
  C  C27  1  0.14339000  0.66829000  0.04906000  1
  C  C28  1  0.64339000  0.83171000  0.54906000  1
  C  C29  1  0.35661000  0.83171000  0.95094000  1
  C  C30  1  0.14339000  0.33171000  0.54906000  1
  C  C31  1  0.85661000  0.33171000  0.95094000  1
  C  C32  1  0.04089000  0.18389000  0.44694000  1
  C  C33  1  0.95911000  0.18389000  0.05306000  1
  C  C34  1  0.54089000  0.68389000  0.44694000  1
  C  C35  1  0.45911000  0.68389000  0.05306000  1
  C  C36  1  0.95911000  0.81611000  0.55306000  1
  C  C37  1  0.04089000  0.81611000  0.94694000  1
  C  C38  1  0.45911000  0.31611000  0.55306000  1
  C  C39  1  0.54089000  0.31611000  0.94694000  1
  C  C40  1  0.03789000  0.86241000  0.44414000  1
  C  C41  1  0.96211000  0.86241000  0.05586000  1
  C  C42  1  0.53789000  0.36241000  0.44414000  1
  C  C43  1  0.46211000  0.36241000  0.05586000  1
  C  C44  1  0.96211000  0.13759000  0.55586000  1
  C  C45  1  0.03789000  0.13759000  0.94414000  1
  C  C46  1  0.46211000  0.63759000  0.55586000  1
  C  C47  1  0.53789000  0.63759000  0.94414000  1
  C  C48  1  0.34931000  0.86251000  0.46045000  1
  C  C49  1  0.65069000  0.86251000  0.03955000  1
  C  C50  1  0.84931000  0.36251000  0.46045000  1
  C  C51  1  0.15069000  0.36251000  0.03955000  1
  C  C52  1  0.65069000  0.13749000  0.53955000  1
  C  C53  1  0.34931000  0.13749000  0.96045000  1
  C  C54  1  0.15069000  0.63749000  0.53955000  1
  C  C55  1  0.84931000  0.63749000  0.96045000  1
  N  N56  1  0.29948000  0.11738000  0.45273000  1
  N  N57  1  0.70052000  0.11738000  0.04727000  1
  N  N58  1  0.79948000  0.61738000  0.45273000  1
  N  N59  1  0.20052000  0.61738000  0.04727000  1
  N  N60  1  0.70052000  0.88262000  0.54727000  1
  N  N61  1  0.29948000  0.88262000  0.95273000  1
  N  N62  1  0.20052000  0.38262000  0.54727000  1
  N  N63  1  0.79948000  0.38262000  0.95273000  1
  N  N64  1  0.09288000  0.12867000  0.44283000  1
  N  N65  1  0.90712000  0.12867000  0.05717000  1
  N  N66  1  0.59288000  0.62867000  0.44283000  1
  N  N67  1  0.40712000  0.62867000  0.05717000  1
  N  N68  1  0.90712000  0.87133000  0.55717000  1
  N  N69  1  0.09288000  0.87133000  0.94283000  1
  N  N70  1  0.40712000  0.37133000  0.55717000  1
  N  N71  1  0.59288000  0.37133000  0.94283000  1
  N  N72  1  0.08898000  0.91923000  0.44453000  1
  N  N73  1  0.91102000  0.91923000  0.05547000  1
  N  N74  1  0.58898000  0.41923000  0.44453000  1
  N  N75  1  0.41102000  0.41923000  0.05547000  1
  N  N76  1  0.91102000  0.08077000  0.55547000  1
  N  N77  1  0.08898000  0.08077000  0.94453000  1
  N  N78  1  0.41102000  0.58077000  0.55547000  1
  N  N79  1  0.58898000  0.58077000  0.94453000  1
  N  N80  1  0.29328000  0.91522000  0.46104000  1
  N  N81  1  0.70672000  0.91522000  0.03896000  1
  N  N82  1  0.79328000  0.41522000  0.46104000  1
  N  N83  1  0.20672000  0.41522000  0.03896000  1
  N  N84  1  0.70672000  0.08478000  0.53896000  1
  N  N85  1  0.29328000  0.08478000  0.96104000  1
  N  N86  1  0.20672000  0.58478000  0.53896000  1
  N  N87  1  0.79328000  0.58478000  0.96104000  1
  N  N88  1  0.19027000  0.01058000  0.38023000  1
  N  N89  1  0.80973000  0.01058000  0.11977000  1
  N  N90  1  0.69027000  0.51058000  0.38023000  1
  N  N91  1  0.30973000  0.51058000  0.11977000  1
  N  N92  1  0.80973000  0.98942000  0.61977000  1
  N  N93  1  0.19027000  0.98942000  0.88023000  1
  N  N94  1  0.30973000  0.48942000  0.61977000  1
  N  N95  1  0.69027000  0.48942000  0.88023000  1
  C  C96  1  0.26769000  0.00621100  0.36404000  1
  C  C97  1  0.73231000  0.00621100  0.13596000  1
  C  C98  1  0.76769000  0.50621100  0.36404000  1
  C  C99  1  0.23231000  0.50621100  0.13596000  1
  C  C100  1  0.73231000  0.99378900  0.63596000  1
  C  C101  1  0.26769000  0.99378900  0.86404000  1
  C  C102  1  0.23231000  0.49378900  0.63596000  1
  C  C103  1  0.76769000  0.49378900  0.86404000  1
  H  H104  1  0.32150000  0.01180000  0.38320000  1
  H  H105  1  0.67850000  0.01180000  0.11680000  1
  H  H106  1  0.82150000  0.51180000  0.38320000  1
  H  H107  1  0.17850000  0.51180000  0.11680000  1
  H  H108  1  0.67850000  0.98820000  0.61680000  1
  H  H109  1  0.32150000  0.98820000  0.88320000  1
  H  H110  1  0.17850000  0.48820000  0.61680000  1
  H  H111  1  0.82150000  0.48820000  0.88320000  1
  C  C112  1  0.27351000  0.99388700  0.32084000  1
  C  C113  1  0.72649000  0.99388700  0.17916000  1
  C  C114  1  0.77351000  0.49388700  0.32084000  1
  C  C115  1  0.22649000  0.49388700  0.17916000  1
  C  C116  1  0.72649000  0.00611300  0.67916000  1
  C  C117  1  0.27351000  0.00611300  0.82084000  1
  C  C118  1  0.22649000  0.50611300  0.67916000  1
  C  C119  1  0.77351000  0.50611300  0.82084000  1
  H  H120  1  0.33000000  0.98920000  0.31140000  1
  H  H121  1  0.67000000  0.98920000  0.18860000  1
  H  H122  1  0.83000000  0.48920000  0.31140000  1
  H  H123  1  0.17000000  0.48920000  0.18860000  1
  H  H124  1  0.67000000  0.01080000  0.68860000  1
  H  H125  1  0.33000000  0.01080000  0.81140000  1
  H  H126  1  0.17000000  0.51080000  0.68860000  1
  H  H127  1  0.83000000  0.51080000  0.81140000  1
  C  C128  1  0.19529000  0.98858900  0.29154000  1
  C  C129  1  0.80471000  0.98858900  0.20846000  1
  C  C130  1  0.69529000  0.48858900  0.29154000  1
  C  C131  1  0.30471000  0.48858900  0.20846000  1
  C  C132  1  0.80471000  0.01141100  0.70846000  1
  C  C133  1  0.19529000  0.01141100  0.79154000  1
  C  C134  1  0.30471000  0.51141100  0.70846000  1
  C  C135  1  0.69529000  0.51141100  0.79154000  1
  C  C136  1  0.11379000  0.00000000  0.30794000  1
  C  C137  1  0.88621000  0.00000000  0.19206000  1
  C  C138  1  0.61379000  0.49568900  0.30794000  1
  C  C139  1  0.38621000  0.49568900  0.19206000  1
  C  C140  1  0.88621000  0.00431100  0.69206000  1
  C  C141  1  0.11379000  0.00431100  0.80794000  1
  C  C142  1  0.38621000  0.50431100  0.69206000  1
  C  C143  1  0.61379000  0.50431100  0.80794000  1
  H  H144  1  0.05880000  0.99420000  0.28940000  1
  H  H145  1  0.94120000  0.99420000  0.21060000  1
  H  H146  1  0.55880000  0.49420000  0.28940000  1
  H  H147  1  0.44120000  0.49420000  0.21060000  1
  H  H148  1  0.94120000  0.00580000  0.71060000  1
  H  H149  1  0.05880000  0.00580000  0.78940000  1
  H  H150  1  0.44120000  0.50580000  0.71060000  1
  H  H151  1  0.55880000  0.50580000  0.78940000  1
  C  C152  1  0.11479000  0.00501100  0.35184000  1
  C  C153  1  0.88521000  0.00501100  0.14816000  1
  C  C154  1  0.61479000  0.50501100  0.35184000  1
  C  C155  1  0.38521000  0.50501100  0.14816000  1
  C  C156  1  0.88521000  0.99498900  0.64816000  1
  C  C157  1  0.11479000  0.99498900  0.85184000  1
  C  C158  1  0.38521000  0.49498900  0.64816000  1
  C  C159  1  0.61479000  0.49498900  0.85184000  1
  H  H160  1  0.05920000  0.00750000  0.36230000  1
  H  H161  1  0.94080000  0.00750000  0.13770000  1
  H  H162  1  0.55920000  0.50750000  0.36230000  1
  H  H163  1  0.44080000  0.50750000  0.13770000  1
  H  H164  1  0.94080000  0.99250000  0.63770000  1
  H  H165  1  0.05920000  0.99250000  0.86230000  1
  H  H166  1  0.44080000  0.49250000  0.63770000  1
  H  H167  1  0.55920000  0.49250000  0.86230000  1
  C  C168  1  0.19889000  0.97558900  0.24444000  1
  C  C169  1  0.80111000  0.97558900  0.25556000  1
  C  C170  1  0.69889000  0.47558900  0.24444000  1
  C  C171  1  0.30111000  0.47558900  0.25556000  1
  C  C172  1  0.80111000  0.02441100  0.75556000  1
  C  C173  1  0.19889000  0.02441100  0.74444000  1
  C  C174  1  0.30111000  0.52441100  0.75556000  1
  C  C175  1  0.69889000  0.52441100  0.74444000  1
  C  C176  1  0.27251100  0.93848600  0.22905000  1
  C  C177  1  0.72748900  0.93848600  0.27095000  1
  C  C178  1  0.77251100  0.43848600  0.22905000  1
  C  C179  1  0.22748900  0.43848600  0.27095000  1
  C  C180  1  0.72748900  0.06151400  0.77095000  1
  C  C181  1  0.27251100  0.06151400  0.72905000  1
  C  C182  1  0.22748900  0.56151400  0.77095000  1
  C  C183  1  0.77251100  0.56151400  0.72905000  1
  H  H184  1  0.32260000  0.91880000  0.24810000  1
  H  H185  1  0.67740000  0.91880000  0.25190000  1
  H  H186  1  0.82260000  0.41880000  0.24810000  1
  H  H187  1  0.17740000  0.41880000  0.25190000  1
  H  H188  1  0.67740000  0.08120000  0.75190000  1
  H  H189  1  0.32260000  0.08120000  0.74810000  1
  H  H190  1  0.17740000  0.58120000  0.75190000  1
  H  H191  1  0.82260000  0.58120000  0.74810000  1
  N  N192  1  0.12549000  0.00000000  0.17464000  1
  N  N193  1  0.87451000  0.00000000  0.32536000  1
  N  N194  1  0.62549000  0.49848900  0.17464000  1
  N  N195  1  0.37451000  0.49848900  0.32536000  1
  N  N196  1  0.87451000  0.00151100  0.82536000  1
  N  N197  1  0.12549000  0.00151100  0.67464000  1
  N  N198  1  0.37451000  0.50151100  0.82536000  1
  N  N199  1  0.62549000  0.50151100  0.67464000  1
  N  N200  1  0.12658000  0.00410000  0.21754000  1
  N  N201  1  0.87342000  0.00410000  0.28246000  1
  N  N202  1  0.62658000  0.50410000  0.21754000  1
  N  N203  1  0.37342000  0.50410000  0.28246000  1
  N  N204  1  0.87342000  0.00000000  0.78246000  1
  N  N205  1  0.12658000  0.00000000  0.71754000  1
  N  N206  1  0.37342000  0.49590000  0.78246000  1
  N  N207  1  0.62658000  0.49590000  0.71754000  1
  C  C208  1  0.27131000  0.93088700  0.18585000  1
  C  C209  1  0.72869000  0.93088700  0.31415000  1
  C  C210  1  0.77131000  0.43088700  0.18585000  1
  C  C211  1  0.22869000  0.43088700  0.31415000  1
  C  C212  1  0.72869000  0.06911300  0.81415000  1
  C  C213  1  0.27131000  0.06911300  0.68585000  1
  C  C214  1  0.22869000  0.56911300  0.81415000  1
  C  C215  1  0.77131000  0.56911300  0.68585000  1
  H  H216  1  0.31980000  0.90510000  0.17430000  1
  H  H217  1  0.68020000  0.90510000  0.32570000  1
  H  H218  1  0.81980000  0.40510000  0.17430000  1
  H  H219  1  0.18020000  0.40510000  0.32570000  1
  H  H220  1  0.68020000  0.09490000  0.82570000  1
  H  H221  1  0.31980000  0.09490000  0.67430000  1
  H  H222  1  0.18020000  0.59490000  0.82570000  1
  H  H223  1  0.81980000  0.59490000  0.67430000  1
  C  C224  1  0.19619000  0.96249000  0.15944000  1
  C  C225  1  0.80381000  0.96249000  0.34056000  1
  C  C226  1  0.69619000  0.46249000  0.15944000  1
  C  C227  1  0.30381000  0.46249000  0.34056000  1
  C  C228  1  0.80381000  0.03751000  0.84056000  1
  C  C229  1  0.19619000  0.03751000  0.65944000  1
  C  C230  1  0.30381000  0.53751000  0.84056000  1
  C  C231  1  0.69619000  0.53751000  0.65944000  1
  C  C232  1  0.19069000  0.96151000  0.11094000  1
  C  C233  1  0.80931000  0.96151000  0.38906000  1
  C  C234  1  0.69069000  0.46151000  0.11094000  1
  C  C235  1  0.30931000  0.46151000  0.38906000  1
  C  C236  1  0.80931000  0.03849000  0.88906000  1
  C  C237  1  0.19069000  0.03849000  0.61094000  1
  C  C238  1  0.30931000  0.53849000  0.88906000  1
  C  C239  1  0.69069000  0.53849000  0.61094000  1
  C  C240  1  0.14551100  0.02891100  0.08684000  1
  C  C241  1  0.85448900  0.02891100  0.41316000  1
  C  C242  1  0.64551100  0.52891100  0.08684000  1
  C  C243  1  0.35448900  0.52891100  0.41316000  1
  C  C244  1  0.85448900  0.97108900  0.91316000  1
  C  C245  1  0.14551100  0.97108900  0.58684000  1
  C  C246  1  0.35448900  0.47108900  0.91316000  1
  C  C247  1  0.64551100  0.47108900  0.58684000  1
  H  H248  1  0.11450000  0.07340000  0.10000000  1
  H  H249  1  0.88550000  0.07340000  0.40000000  1
  H  H250  1  0.61450000  0.57340000  0.10000000  1
  H  H251  1  0.38550000  0.57340000  0.40000000  1
  H  H252  1  0.88550000  0.92660000  0.90000000  1
  H  H253  1  0.11450000  0.92660000  0.60000000  1
  H  H254  1  0.38550000  0.42660000  0.90000000  1
  H  H255  1  0.61450000  0.42660000  0.60000000  1
  C  C256  1  0.14671100  0.03001100  0.04354000  1
  C  C257  1  0.85328900  0.03001100  0.45646000  1
  C  C258  1  0.64671100  0.53001100  0.04354000  1
  C  C259  1  0.35328900  0.53001100  0.45646000  1
  C  C260  1  0.85328900  0.96998900  0.95646000  1
  C  C261  1  0.14671100  0.96998900  0.54354000  1
  C  C262  1  0.35328900  0.46998900  0.95646000  1
  C  C263  1  0.64671100  0.46998900  0.54354000  1
  H  H264  1  0.11630000  0.07690000  0.02750000  1
  H  H265  1  0.88370000  0.07690000  0.47250000  1
  H  H266  1  0.61630000  0.57690000  0.02750000  1
  H  H267  1  0.38370000  0.57690000  0.47250000  1
  H  H268  1  0.88370000  0.92310000  0.97250000  1
  H  H269  1  0.11630000  0.92310000  0.52750000  1
  H  H270  1  0.38370000  0.42310000  0.97250000  1
  H  H271  1  0.61630000  0.42310000  0.52750000  1
  C  C272  1  0.22810000  0.90181000  0.04534000  1
  C  C273  1  0.77190000  0.90181000  0.45466000  1
  C  C274  1  0.72810000  0.40181000  0.04534000  1
  C  C275  1  0.27190000  0.40181000  0.45466000  1
  C  C276  1  0.77190000  0.09819000  0.95466000  1
  C  C277  1  0.22810000  0.09819000  0.54534000  1
  C  C278  1  0.27190000  0.59819000  0.95466000  1
  C  C279  1  0.72810000  0.59819000  0.54534000  1
  H  H280  1  0.25450000  0.85570000  0.03110000  1
  H  H281  1  0.74550000  0.85570000  0.46890000  1
  H  H282  1  0.75450000  0.35570000  0.03110000  1
  H  H283  1  0.24550000  0.35570000  0.46890000  1
  H  H284  1  0.74550000  0.14430000  0.96890000  1
  H  H285  1  0.25450000  0.14430000  0.53110000  1
  H  H286  1  0.24550000  0.64430000  0.96890000  1
  H  H287  1  0.75450000  0.64430000  0.53110000  1
  C  C288  1  0.23231100  0.89679000  0.08964000  1
  C  C289  1  0.76768900  0.89679000  0.41036000  1
  C  C290  1  0.73231100  0.39679000  0.08964000  1
  C  C291  1  0.26768900  0.39679000  0.41036000  1
  C  C292  1  0.76768900  0.10321000  0.91036000  1
  C  C293  1  0.23231100  0.10321000  0.58964000  1
  C  C294  1  0.26768900  0.60321000  0.91036000  1
  C  C295  1  0.73231100  0.60321000  0.58964000  1
  H  H296  1  0.26330000  0.84950000  0.10490000  1
  H  H297  1  0.73670000  0.84950000  0.39510000  1
  H  H298  1  0.76330000  0.34950000  0.10490000  1
  H  H299  1  0.23670000  0.34950000  0.39510000  1
  H  H300  1  0.73670000  0.15050000  0.89510000  1
  H  H301  1  0.26330000  0.15050000  0.60490000  1
  H  H302  1  0.23670000  0.65050000  0.89510000  1
  H  H303  1  0.76330000  0.65050000  0.60490000  1
  N  N304  1  0.18887000  0.96793000  0.02193000  1
  N  N305  1  0.81113000  0.96793000  0.47807000  1
  N  N306  1  0.68887000  0.46793000  0.02193000  1
  N  N307  1  0.31113000  0.46793000  0.47807000  1
  N  N308  1  0.81113000  0.03207000  0.97807000  1
  N  N309  1  0.18887000  0.03207000  0.52193000  1
  N  N310  1  0.31113000  0.53207000  0.97807000  1
  N  N311  1  0.68887000  0.53207000  0.52193000  1
