# generated using pymatgen
data_TlH8AuC22(NCl5)2
_symmetry_space_group_name_H-M   'P 1'
_cell_length_a   11.81473000
_cell_length_b   22.21025000
_cell_length_c   11.84483000
_cell_angle_alpha   90.00000000
_cell_angle_beta   106.09591200
_cell_angle_gamma   90.00000000
_symmetry_Int_Tables_number   1
_chemical_formula_structural   TlH8AuC22(NCl5)2
_chemical_formula_sum   'Tl4 H32 Au4 C88 N8 Cl40'
_cell_volume   2986.33548330
_cell_formula_units_Z   4
loop_
 _symmetry_equiv_pos_site_id
 _symmetry_equiv_pos_as_xyz
  1  'x, y, z'
loop_
 _atom_site_type_symbol
 _atom_site_label
 _atom_site_symmetry_multiplicity
 _atom_site_fract_x
 _atom_site_fract_y
 _atom_site_fract_z
 _atom_site_occupancy
  Tl  Tl0  1  0.25746200  0.00943511  0.03308200  1
  Tl  Tl1  1  0.25746200  0.49056489  0.53308200  1
  Tl  Tl2  1  0.74253800  0.99056489  0.96691800  1
  Tl  Tl3  1  0.74253800  0.50943511  0.46691800  1
  Au  Au4  1  0.00000000  0.00000000  0.00000000  1
  Au  Au5  1  0.00000000  0.50000000  0.50000000  1
  Au  Au6  1  0.50000000  0.00000000  0.00000000  1
  Au  Au7  1  0.50000000  0.50000000  0.50000000  1
  C  C8  1  0.02125000  0.93797000  0.13405000  1
  C  C9  1  0.02125000  0.56203000  0.63405000  1
  C  C10  1  0.97875000  0.06203000  0.86595000  1
  C  C11  1  0.97875000  0.43797000  0.36595000  1
  C  C12  1  0.07114000  0.88087000  0.12785000  1
  C  C13  1  0.07114000  0.61913000  0.62785000  1
  C  C14  1  0.92886000  0.11913000  0.87215000  1
  C  C15  1  0.92886000  0.38087000  0.37215000  1
  C  C16  1  0.07475000  0.83508000  0.20976000  1
  C  C17  1  0.07475000  0.66492000  0.70976000  1
  C  C18  1  0.92525000  0.16492000  0.79024000  1
  C  C19  1  0.92525000  0.33508000  0.29024000  1
  C  C20  1  0.02615000  0.84517000  0.30196000  1
  C  C21  1  0.02615000  0.65483000  0.80196000  1
  C  C22  1  0.97385000  0.15483000  0.69804000  1
  C  C23  1  0.97385000  0.34517000  0.19804000  1
  C  C24  1  0.97675000  0.90087000  0.31405000  1
  C  C25  1  0.97675000  0.59913000  0.81405000  1
  C  C26  1  0.02325000  0.09913000  0.68595000  1
  C  C27  1  0.02325000  0.40087000  0.18595000  1
  C  C28  1  0.97835000  0.94538000  0.23175000  1
  C  C29  1  0.97835000  0.55462000  0.73175000  1
  C  C30  1  0.02165000  0.05462000  0.76825000  1
  C  C31  1  0.02165000  0.44538000  0.26825000  1
  Cl  Cl32  1  0.12454140  0.86501300  0.00823150  1
  Cl  Cl33  1  0.12454140  0.63498700  0.50823150  1
  Cl  Cl34  1  0.87545860  0.13498700  0.99176850  1
  Cl  Cl35  1  0.87545860  0.36501300  0.49176850  1
  Cl  Cl36  1  0.13659160  0.76638300  0.19654170  1
  Cl  Cl37  1  0.13659160  0.73361700  0.69654170  1
  Cl  Cl38  1  0.86340840  0.23361700  0.80345830  1
  Cl  Cl39  1  0.86340840  0.26638300  0.30345830  1
  Cl  Cl40  1  0.02385160  0.78783200  0.39980160  1
  Cl  Cl41  1  0.02385160  0.71216800  0.89980160  1
  Cl  Cl42  1  0.97614840  0.21216800  0.60019840  1
  Cl  Cl43  1  0.97614840  0.28783200  0.10019840  1
  Cl  Cl44  1  0.91428840  0.91305200  0.42740160  1
  Cl  Cl45  1  0.91428840  0.58694800  0.92740160  1
  Cl  Cl46  1  0.08571160  0.08694800  0.57259840  1
  Cl  Cl47  1  0.08571160  0.41305200  0.07259840  1
  Cl  Cl48  1  0.91443860  0.01474700  0.24908160  1
  Cl  Cl49  1  0.91443860  0.48525300  0.74908160  1
  Cl  Cl50  1  0.08556140  0.98525300  0.75091840  1
  Cl  Cl51  1  0.08556140  0.51474700  0.25091840  1
  C  C52  1  0.43565000  0.98918000  0.82054000  1
  C  C53  1  0.43565000  0.51082000  0.32054000  1
  C  C54  1  0.56435000  0.01082000  0.17946000  1
  C  C55  1  0.56435000  0.48918000  0.67946000  1
  C  C56  1  0.36504000  0.94018000  0.77115000  1
  C  C57  1  0.36504000  0.55982000  0.27115000  1
  C  C58  1  0.63496000  0.05982000  0.22885000  1
  C  C59  1  0.63496000  0.44018000  0.72885000  1
  C  C60  1  0.31445000  0.93327000  0.65024000  1
  C  C61  1  0.31445000  0.56673000  0.15024000  1
  C  C62  1  0.68555000  0.06673000  0.34976000  1
  C  C63  1  0.68555000  0.43327000  0.84976000  1
  C  C64  1  0.33325000  0.97687000  0.57344000  1
  C  C65  1  0.33325000  0.52313000  0.07344000  1
  C  C66  1  0.66675000  0.02313000  0.42656000  1
  C  C67  1  0.66675000  0.47687000  0.92656000  1
  C  C68  1  0.40255000  0.02643000  0.61744000  1
  C  C69  1  0.40255000  0.47357000  0.11744000  1
  C  C70  1  0.59745000  0.97357000  0.38256000  1
  C  C71  1  0.59745000  0.52643000  0.88256000  1
  C  C72  1  0.45565000  0.03093000  0.73825000  1
  C  C73  1  0.45565000  0.46907000  0.23825000  1
  C  C74  1  0.54435000  0.96907000  0.26175000  1
  C  C75  1  0.54435000  0.53093000  0.76175000  1
  Cl  Cl76  1  0.34162140  0.88423300  0.86437840  1
  Cl  Cl77  1  0.34162140  0.61576700  0.36437840  1
  Cl  Cl78  1  0.65837860  0.11576700  0.13562160  1
  Cl  Cl79  1  0.65837860  0.38423300  0.63562160  1
  Cl  Cl80  1  0.23009160  0.87115200  0.59540830  1
  Cl  Cl81  1  0.23009160  0.62884800  0.09540830  1
  Cl  Cl82  1  0.76990840  0.12884800  0.40459170  1
  Cl  Cl83  1  0.76990840  0.37115200  0.90459170  1
  Cl  Cl84  1  0.26674170  0.97084100  0.42470830  1
  Cl  Cl85  1  0.26674170  0.52915900  0.92470830  1
  Cl  Cl86  1  0.73325830  0.02915900  0.57529170  1
  Cl  Cl87  1  0.73325830  0.47084100  0.07529170  1
  Cl  Cl88  1  0.42405170  0.08172800  0.52318840  1
  Cl  Cl89  1  0.42405170  0.41827200  0.02318840  1
  Cl  Cl90  1  0.57594830  0.91827200  0.47681160  1
  Cl  Cl91  1  0.57594830  0.58172800  0.97681160  1
  Cl  Cl92  1  0.54785140  0.09192700  0.79004850  1
  Cl  Cl93  1  0.54785140  0.40807300  0.29004850  1
  Cl  Cl94  1  0.45214860  0.90807300  0.20995150  1
  Cl  Cl95  1  0.45214860  0.59192700  0.70995150  1
