# generated using pymatgen
data_CuH18(C15O2)2
_symmetry_space_group_name_H-M   'P 1'
_cell_length_a   48.30335518
_cell_length_b   48.30335518
_cell_length_c   48.30335518
_cell_angle_alpha   60.00000000
_cell_angle_beta   60.00000000
_cell_angle_gamma   60.00000000
_symmetry_Int_Tables_number   1
_chemical_formula_structural   CuH18(C15O2)2
_chemical_formula_sum   'Cu12 H216 C360 O48'
_cell_volume   79692.39824110
_cell_formula_units_Z   12
loop_
 _symmetry_equiv_pos_site_id
 _symmetry_equiv_pos_as_xyz
  1  'x, y, z'
loop_
 _atom_site_type_symbol
 _atom_site_label
 _atom_site_symmetry_multiplicity
 _atom_site_fract_x
 _atom_site_fract_y
 _atom_site_fract_z
 _atom_site_occupancy
  C  C288  1  0.82676840  0.87824880  0.82676840  1.0
  C  C289  1  0.46821440  0.82676840  0.87824880  1.0
  C  C290  1  0.82676840  0.46821440  0.82676840  1.0
  C  C291  1  0.87824880  0.82676840  0.46821440  1.0
  C  C292  1  0.87824880  0.82676840  0.82676840  1.0
  C  C293  1  0.82676840  0.87824880  0.46821440  1.0
  C  C294  1  0.46821440  0.82676840  0.82676840  1.0
  C  C295  1  0.82676840  0.46821440  0.87824880  1.0
  C  C296  1  0.82676840  0.82676840  0.87824880  1.0
  C  C297  1  0.87824880  0.46821440  0.82676840  1.0
  C  C298  1  0.82676840  0.82676840  0.46821440  1.0
  C  C299  1  0.46821440  0.87824880  0.82676840  1.0
  C  C300  1  0.53178560  0.12175120  0.17323160  1.0
  C  C301  1  0.17323160  0.17323160  0.12175120  1.0
  C  C302  1  0.12175120  0.53178560  0.17323160  1.0
  C  C303  1  0.17323160  0.17323160  0.53178560  1.0
  C  C304  1  0.53178560  0.17323160  0.17323160  1.0
  C  C305  1  0.17323160  0.12175120  0.53178560  1.0
  C  C306  1  0.12175120  0.17323160  0.17323160  1.0
  C  C307  1  0.17323160  0.53178560  0.12175120  1.0
  C  C308  1  0.53178560  0.17323160  0.12175120  1.0
  C  C309  1  0.17323160  0.53178560  0.17323160  1.0
  C  C310  1  0.12175120  0.17323160  0.53178560  1.0
  C  C311  1  0.17323160  0.12175120  0.17323160  1.0
  C  C480  1  0.86119840  0.86119840  0.80959860  1.0
  C  C481  1  0.46800460  0.80959860  0.86119840  1.0
  C  C482  1  0.80959860  0.46800460  0.86119840  1.0
  C  C483  1  0.86119840  0.86119840  0.46800460  1.0
  C  C484  1  0.86119840  0.80959860  0.86119840  1.0
  C  C485  1  0.80959860  0.86119840  0.46800460  1.0
  C  C486  1  0.46800460  0.86119840  0.80959860  1.0
  C  C487  1  0.86119840  0.46800460  0.86119840  1.0
  C  C488  1  0.80959860  0.86119840  0.86119840  1.0
  C  C489  1  0.86119840  0.46800460  0.80959860  1.0
  C  C490  1  0.86119840  0.80959860  0.46800460  1.0
  C  C491  1  0.46800460  0.86119840  0.86119840  1.0
  C  C492  1  0.53199540  0.13880160  0.19040140  1.0
  C  C493  1  0.13880160  0.19040140  0.13880160  1.0
  C  C494  1  0.13880160  0.53199540  0.13880160  1.0
  C  C495  1  0.19040140  0.13880160  0.53199540  1.0
  C  C496  1  0.53199540  0.19040140  0.13880160  1.0
  C  C497  1  0.13880160  0.13880160  0.53199540  1.0
  C  C498  1  0.13880160  0.13880160  0.19040140  1.0
  C  C499  1  0.19040140  0.53199540  0.13880160  1.0
  C  C500  1  0.53199540  0.13880160  0.13880160  1.0
  C  C501  1  0.13880160  0.53199540  0.19040140  1.0
  C  C502  1  0.13880160  0.19040140  0.53199540  1.0
  C  C503  1  0.19040140  0.13880160  0.13880160  1.0
  C  C576  1  0.87748000  0.87748000  0.77111660  1.0
  C  C577  1  0.47392340  0.77111660  0.87748000  1.0
  C  C578  1  0.77111660  0.47392340  0.87748000  1.0
  C  C579  1  0.87748000  0.87748000  0.47392340  1.0
  C  C580  1  0.87748000  0.77111660  0.87748000  1.0
  C  C581  1  0.77111660  0.87748000  0.47392340  1.0
  C  C582  1  0.47392340  0.87748000  0.77111660  1.0
  C  C583  1  0.87748000  0.47392340  0.87748000  1.0
  C  C584  1  0.77111660  0.87748000  0.87748000  1.0
  C  C585  1  0.87748000  0.47392340  0.77111660  1.0
  C  C586  1  0.87748000  0.77111660  0.47392340  1.0
  C  C587  1  0.47392340  0.87748000  0.87748000  1.0
  C  C588  1  0.52607660  0.12252000  0.22888340  1.0
  C  C589  1  0.12252000  0.22888340  0.12252000  1.0
  C  C590  1  0.12252000  0.52607660  0.12252000  1.0
  C  C591  1  0.22888340  0.12252000  0.52607660  1.0
  C  C592  1  0.52607660  0.22888340  0.12252000  1.0
  C  C593  1  0.12252000  0.12252000  0.52607660  1.0
  C  C594  1  0.12252000  0.12252000  0.22888340  1.0
  C  C595  1  0.22888340  0.52607660  0.12252000  1.0
  C  C596  1  0.52607660  0.12252000  0.12252000  1.0
  C  C597  1  0.12252000  0.52607660  0.22888340  1.0
  C  C598  1  0.12252000  0.22888340  0.52607660  1.0
  C  C599  1  0.22888340  0.12252000  0.12252000  1.0
  C  C672  1  0.85944830  0.91102810  0.75396870  1.0
  C  C673  1  0.47555490  0.75396870  0.91102810  1.0
  C  C674  1  0.75396870  0.47555490  0.85944830  1.0
  C  C675  1  0.91102810  0.85944830  0.47555490  1.0
  C  C676  1  0.91102810  0.75396870  0.85944830  1.0
  C  C677  1  0.75396870  0.91102810  0.47555490  1.0
  C  C678  1  0.47555490  0.85944830  0.75396870  1.0
  C  C679  1  0.85944830  0.47555490  0.91102810  1.0
  C  C680  1  0.75396870  0.85944830  0.91102810  1.0
  C  C681  1  0.91102810  0.47555490  0.75396870  1.0
  C  C682  1  0.85944830  0.75396870  0.47555490  1.0
  C  C683  1  0.47555490  0.91102810  0.85944830  1.0
  C  C684  1  0.52444510  0.08897190  0.24603130  1.0
  C  C685  1  0.14055170  0.24603130  0.08897190  1.0
  C  C686  1  0.08897190  0.52444510  0.14055170  1.0
  C  C687  1  0.24603130  0.14055170  0.52444510  1.0
  C  C688  1  0.52444510  0.24603130  0.14055170  1.0
  C  C689  1  0.14055170  0.08897190  0.52444510  1.0
  C  C690  1  0.08897190  0.14055170  0.24603130  1.0
  C  C691  1  0.24603130  0.52444510  0.08897190  1.0
  C  C692  1  0.52444510  0.14055170  0.08897190  1.0
  C  C693  1  0.14055170  0.52444510  0.24603130  1.0
  C  C694  1  0.08897190  0.24603130  0.52444510  1.0
  C  C695  1  0.24603130  0.08897190  0.14055170  1.0
  C  C768  1  0.14055170  0.08897190  0.24603130  1.0
  C  C769  1  0.52444510  0.24603130  0.08897190  1.0
  C  C770  1  0.24603130  0.52444510  0.14055170  1.0
  C  C771  1  0.08897190  0.14055170  0.52444510  1.0
  C  C772  1  0.08897190  0.24603130  0.14055170  1.0
  C  C773  1  0.24603130  0.08897190  0.52444510  1.0
  C  C774  1  0.52444510  0.14055170  0.24603130  1.0
  C  C775  1  0.14055170  0.52444510  0.08897190  1.0
  C  C776  1  0.24603130  0.14055170  0.08897190  1.0
  C  C777  1  0.08897190  0.52444510  0.24603130  1.0
  C  C778  1  0.14055170  0.24603130  0.52444510  1.0
  C  C779  1  0.52444510  0.08897190  0.14055170  1.0
  C  C780  1  0.47555490  0.91102810  0.75396870  1.0
  C  C781  1  0.85944830  0.75396870  0.91102810  1.0
  C  C782  1  0.91102810  0.47555490  0.85944830  1.0
  C  C783  1  0.75396870  0.85944830  0.47555490  1.0
  C  C784  1  0.47555490  0.75396870  0.85944830  1.0
  C  C785  1  0.85944830  0.91102810  0.47555490  1.0
  C  C786  1  0.91102810  0.85944830  0.75396870  1.0
  C  C787  1  0.75396870  0.47555490  0.91102810  1.0
  C  C788  1  0.47555490  0.85944830  0.91102810  1.0
  C  C789  1  0.85944830  0.47555490  0.75396870  1.0
  C  C790  1  0.91102810  0.75396870  0.47555490  1.0
  C  C791  1  0.75396870  0.91102810  0.85944830  1.0
  C  C1056  1  0.87569980  0.92746020  0.71947640  1.0
  C  C1057  1  0.47736360  0.71947640  0.92746020  1.0
  C  C1058  1  0.71947640  0.47736360  0.87569980  1.0
  C  C1059  1  0.92746020  0.87569980  0.47736360  1.0
  C  C1060  1  0.92746020  0.71947640  0.87569980  1.0
  C  C1061  1  0.71947640  0.92746020  0.47736360  1.0
  C  C1062  1  0.47736360  0.87569980  0.71947640  1.0
  C  C1063  1  0.87569980  0.47736360  0.92746020  1.0
  C  C1064  1  0.71947640  0.87569980  0.92746020  1.0
  C  C1065  1  0.92746020  0.47736360  0.71947640  1.0
  C  C1066  1  0.87569980  0.71947640  0.47736360  1.0
  C  C1067  1  0.47736360  0.92746020  0.87569980  1.0
  C  C1068  1  0.52263640  0.07253980  0.28052360  1.0
  C  C1069  1  0.12430020  0.28052360  0.07253980  1.0
  C  C1070  1  0.07253980  0.52263640  0.12430020  1.0
  C  C1071  1  0.28052360  0.12430020  0.52263640  1.0
  C  C1072  1  0.52263640  0.28052360  0.12430020  1.0
  C  C1073  1  0.12430020  0.07253980  0.52263640  1.0
  C  C1074  1  0.07253980  0.12430020  0.28052360  1.0
  C  C1075  1  0.28052360  0.52263640  0.07253980  1.0
  C  C1076  1  0.52263640  0.12430020  0.07253980  1.0
  C  C1077  1  0.12430020  0.52263640  0.28052360  1.0
  C  C1078  1  0.07253980  0.28052360  0.52263640  1.0
  C  C1079  1  0.28052360  0.07253980  0.12430020  1.0
  C  C1152  1  0.12430020  0.07253980  0.28052360  1.0
  C  C1153  1  0.52263640  0.28052360  0.07253980  1.0
  C  C1154  1  0.28052360  0.52263640  0.12430020  1.0
  C  C1155  1  0.07253980  0.12430020  0.52263640  1.0
  C  C1156  1  0.07253980  0.28052360  0.12430020  1.0
  C  C1157  1  0.28052360  0.07253980  0.52263640  1.0
  C  C1158  1  0.52263640  0.12430020  0.28052360  1.0
  C  C1159  1  0.12430020  0.52263640  0.07253980  1.0
  C  C1160  1  0.28052360  0.12430020  0.07253980  1.0
  C  C1161  1  0.07253980  0.52263640  0.28052360  1.0
  C  C1162  1  0.12430020  0.28052360  0.52263640  1.0
  C  C1163  1  0.52263640  0.07253980  0.12430020  1.0
  C  C1164  1  0.47736360  0.92746020  0.71947640  1.0
  C  C1165  1  0.87569980  0.71947640  0.92746020  1.0
  C  C1166  1  0.92746020  0.47736360  0.87569980  1.0
  C  C1167  1  0.71947640  0.87569980  0.47736360  1.0
  C  C1168  1  0.47736360  0.71947640  0.87569980  1.0
  C  C1169  1  0.87569980  0.92746020  0.47736360  1.0
  C  C1170  1  0.92746020  0.87569980  0.71947640  1.0
  C  C1171  1  0.71947640  0.47736360  0.92746020  1.0
  C  C1172  1  0.47736360  0.87569980  0.92746020  1.0
  C  C1173  1  0.87569980  0.47736360  0.71947640  1.0
  C  C1174  1  0.92746020  0.71947640  0.47736360  1.0
  C  C1175  1  0.71947640  0.92746020  0.87569980  1.0
  C  C1440  1  0.91028000  0.91028000  0.70381640  1.0
  C  C1441  1  0.47562360  0.70381640  0.91028000  1.0
  C  C1442  1  0.70381640  0.47562360  0.91028000  1.0
  C  C1443  1  0.91028000  0.91028000  0.47562360  1.0
  C  C1444  1  0.91028000  0.70381640  0.91028000  1.0
  C  C1445  1  0.70381640  0.91028000  0.47562360  1.0
  C  C1446  1  0.47562360  0.91028000  0.70381640  1.0
  C  C1447  1  0.91028000  0.47562360  0.91028000  1.0
  C  C1448  1  0.70381640  0.91028000  0.91028000  1.0
  C  C1449  1  0.91028000  0.47562360  0.70381640  1.0
  C  C1450  1  0.91028000  0.70381640  0.47562360  1.0
  C  C1451  1  0.47562360  0.91028000  0.91028000  1.0
  C  C1452  1  0.52437640  0.08972000  0.29618360  1.0
  C  C1453  1  0.08972000  0.29618360  0.08972000  1.0
  C  C1454  1  0.08972000  0.52437640  0.08972000  1.0
  C  C1455  1  0.29618360  0.08972000  0.52437640  1.0
  C  C1456  1  0.52437640  0.29618360  0.08972000  1.0
  C  C1457  1  0.08972000  0.08972000  0.52437640  1.0
  C  C1458  1  0.08972000  0.08972000  0.29618360  1.0
  C  C1459  1  0.29618360  0.52437640  0.08972000  1.0
  C  C1460  1  0.52437640  0.08972000  0.08972000  1.0
  C  C1461  1  0.08972000  0.52437640  0.29618360  1.0
  C  C1462  1  0.08972000  0.29618360  0.52437640  1.0
  C  C1463  1  0.29618360  0.08972000  0.08972000  1.0
  C  C1536  1  0.92840830  0.92840830  0.66748930  1.0
  C  C1537  1  0.47569410  0.66748930  0.92840830  1.0
  C  C1538  1  0.66748930  0.47569410  0.92840830  1.0
  C  C1539  1  0.92840830  0.92840830  0.47569410  1.0
  C  C1540  1  0.92840830  0.66748930  0.92840830  1.0
  C  C1541  1  0.66748930  0.92840830  0.47569410  1.0
  C  C1542  1  0.47569410  0.92840830  0.66748930  1.0
  C  C1543  1  0.92840830  0.47569410  0.92840830  1.0
  C  C1544  1  0.66748930  0.92840830  0.92840830  1.0
  C  C1545  1  0.92840830  0.47569410  0.66748930  1.0
  C  C1546  1  0.92840830  0.66748930  0.47569410  1.0
  C  C1547  1  0.47569410  0.92840830  0.92840830  1.0
  C  C1548  1  0.52430590  0.07159170  0.33251070  1.0
  C  C1549  1  0.07159170  0.33251070  0.07159170  1.0
  C  C1550  1  0.07159170  0.52430590  0.07159170  1.0
  C  C1551  1  0.33251070  0.07159170  0.52430590  1.0
  C  C1552  1  0.52430590  0.33251070  0.07159170  1.0
  C  C1553  1  0.07159170  0.07159170  0.52430590  1.0
  C  C1554  1  0.07159170  0.07159170  0.33251070  1.0
  C  C1555  1  0.33251070  0.52430590  0.07159170  1.0
  C  C1556  1  0.52430590  0.07159170  0.07159170  1.0
  C  C1557  1  0.07159170  0.52430590  0.33251070  1.0
  C  C1558  1  0.07159170  0.33251070  0.52430590  1.0
  C  C1559  1  0.33251070  0.07159170  0.07159170  1.0
  C  C1632  1  0.90955850  0.96143830  0.65087910  1.0
  C  C1633  1  0.47812410  0.65087910  0.96143830  1.0
  C  C1634  1  0.65087910  0.47812410  0.90955850  1.0
  C  C1635  1  0.96143830  0.90955850  0.47812410  1.0
  C  C1636  1  0.96143830  0.65087910  0.90955850  1.0
  C  C1637  1  0.65087910  0.96143830  0.47812410  1.0
  C  C1638  1  0.47812410  0.90955850  0.65087910  1.0
  C  C1639  1  0.90955850  0.47812410  0.96143830  1.0
  C  C1640  1  0.65087910  0.90955850  0.96143830  1.0
  C  C1641  1  0.96143830  0.47812410  0.65087910  1.0
  C  C1642  1  0.90955850  0.65087910  0.47812410  1.0
  C  C1643  1  0.47812410  0.96143830  0.90955850  1.0
  C  C1644  1  0.52187590  0.03856170  0.34912090  1.0
  C  C1645  1  0.09044150  0.34912090  0.03856170  1.0
  C  C1646  1  0.03856170  0.52187590  0.09044150  1.0
  C  C1647  1  0.34912090  0.09044150  0.52187590  1.0
  C  C1648  1  0.52187590  0.34912090  0.09044150  1.0
  C  C1649  1  0.09044150  0.03856170  0.52187590  1.0
  C  C1650  1  0.03856170  0.09044150  0.34912090  1.0
  C  C1651  1  0.34912090  0.52187590  0.03856170  1.0
  C  C1652  1  0.52187590  0.09044150  0.03856170  1.0
  C  C1653  1  0.09044150  0.52187590  0.34912090  1.0
  C  C1654  1  0.03856170  0.34912090  0.52187590  1.0
  C  C1655  1  0.34912090  0.03856170  0.09044150  1.0
  C  C1728  1  0.09044150  0.03856170  0.34912090  1.0
  C  C1729  1  0.52187590  0.34912090  0.03856170  1.0
  C  C1730  1  0.34912090  0.52187590  0.09044150  1.0
  C  C1731  1  0.03856170  0.09044150  0.52187590  1.0
  C  C1732  1  0.03856170  0.34912090  0.09044150  1.0
  C  C1733  1  0.34912090  0.03856170  0.52187590  1.0
  C  C1734  1  0.52187590  0.09044150  0.34912090  1.0
  C  C1735  1  0.09044150  0.52187590  0.03856170  1.0
  C  C1736  1  0.34912090  0.09044150  0.03856170  1.0
  C  C1737  1  0.03856170  0.52187590  0.34912090  1.0
  C  C1738  1  0.09044150  0.34912090  0.52187590  1.0
  C  C1739  1  0.52187590  0.03856170  0.09044150  1.0
  C  C1740  1  0.47812410  0.96143830  0.65087910  1.0
  C  C1741  1  0.90955850  0.65087910  0.96143830  1.0
  C  C1742  1  0.96143830  0.47812410  0.90955850  1.0
  C  C1743  1  0.65087910  0.90955850  0.47812410  1.0
  C  C1744  1  0.47812410  0.65087910  0.90955850  1.0
  C  C1745  1  0.90955850  0.96143830  0.47812410  1.0
  C  C1746  1  0.96143830  0.90955850  0.65087910  1.0
  C  C1747  1  0.65087910  0.47812410  0.96143830  1.0
  C  C1748  1  0.47812410  0.90955850  0.96143830  1.0
  C  C1749  1  0.90955850  0.47812410  0.65087910  1.0
  C  C1750  1  0.96143830  0.65087910  0.47812410  1.0
  C  C1751  1  0.65087910  0.96143830  0.90955850  1.0
  C  C2016  1  0.92502830  0.97690850  0.61550870  1.0
  C  C2017  1  0.48255450  0.61550870  0.97690850  1.0
  C  C2018  1  0.61550870  0.48255450  0.92502830  1.0
  C  C2019  1  0.97690850  0.92502830  0.48255450  1.0
  C  C2020  1  0.97690850  0.61550870  0.92502830  1.0
  C  C2021  1  0.61550870  0.97690850  0.48255450  1.0
  C  C2022  1  0.48255450  0.92502830  0.61550870  1.0
  C  C2023  1  0.92502830  0.48255450  0.97690850  1.0
  C  C2024  1  0.61550870  0.92502830  0.97690850  1.0
  C  C2025  1  0.97690850  0.48255450  0.61550870  1.0
  C  C2026  1  0.92502830  0.61550870  0.48255450  1.0
  C  C2027  1  0.48255450  0.97690850  0.92502830  1.0
  C  C2028  1  0.51744550  0.02309150  0.38449130  1.0
  C  C2029  1  0.07497170  0.38449130  0.02309150  1.0
  C  C2030  1  0.02309150  0.51744550  0.07497170  1.0
  C  C2031  1  0.38449130  0.07497170  0.51744550  1.0
  C  C2032  1  0.51744550  0.38449130  0.07497170  1.0
  C  C2033  1  0.07497170  0.02309150  0.51744550  1.0
  C  C2034  1  0.02309150  0.07497170  0.38449130  1.0
  C  C2035  1  0.38449130  0.51744550  0.02309150  1.0
  C  C2036  1  0.51744550  0.07497170  0.02309150  1.0
  C  C2037  1  0.07497170  0.51744550  0.38449130  1.0
  C  C2038  1  0.02309150  0.38449130  0.51744550  1.0
  C  C2039  1  0.38449130  0.02309150  0.07497170  1.0
  C  C2112  1  0.07497170  0.02309150  0.38449130  1.0
  C  C2113  1  0.51744550  0.38449130  0.02309150  1.0
  C  C2114  1  0.38449130  0.51744550  0.07497170  1.0
  C  C2115  1  0.02309150  0.07497170  0.51744550  1.0
  C  C2116  1  0.02309150  0.38449130  0.07497170  1.0
  C  C2117  1  0.38449130  0.02309150  0.51744550  1.0
  C  C2118  1  0.51744550  0.07497170  0.38449130  1.0
  C  C2119  1  0.07497170  0.51744550  0.02309150  1.0
  C  C2120  1  0.38449130  0.07497170  0.02309150  1.0
  C  C2121  1  0.02309150  0.51744550  0.38449130  1.0
  C  C2122  1  0.07497170  0.38449130  0.51744550  1.0
  C  C2123  1  0.51744550  0.02309150  0.07497170  1.0
  C  C2124  1  0.48255450  0.97690850  0.61550870  1.0
  C  C2125  1  0.92502830  0.61550870  0.97690850  1.0
  C  C2126  1  0.97690850  0.48255450  0.92502830  1.0
  C  C2127  1  0.61550870  0.92502830  0.48255450  1.0
  C  C2128  1  0.48255450  0.61550870  0.92502830  1.0
  C  C2129  1  0.92502830  0.97690850  0.48255450  1.0
  C  C2130  1  0.97690850  0.92502830  0.61550870  1.0
  C  C2131  1  0.61550870  0.48255450  0.97690850  1.0
  C  C2132  1  0.48255450  0.92502830  0.97690850  1.0
  C  C2133  1  0.92502830  0.48255450  0.61550870  1.0
  C  C2134  1  0.97690850  0.61550870  0.48255450  1.0
  C  C2135  1  0.61550870  0.97690850  0.92502830  1.0
  C  C2400  1  0.95918000  0.95918000  0.59863700  1.0
  C  C2401  1  0.48300300  0.59863700  0.95918000  1.0
  C  C2402  1  0.59863700  0.48300300  0.95918000  1.0
  C  C2403  1  0.95918000  0.95918000  0.48300300  1.0
  C  C2404  1  0.95918000  0.59863700  0.95918000  1.0
  C  C2405  1  0.59863700  0.95918000  0.48300300  1.0
  C  C2406  1  0.48300300  0.95918000  0.59863700  1.0
  C  C2407  1  0.95918000  0.48300300  0.95918000  1.0
  C  C2408  1  0.59863700  0.95918000  0.95918000  1.0
  C  C2409  1  0.95918000  0.48300300  0.59863700  1.0
  C  C2410  1  0.95918000  0.59863700  0.48300300  1.0
  C  C2411  1  0.48300300  0.95918000  0.95918000  1.0
  C  C2412  1  0.51699700  0.04082000  0.40136300  1.0
  C  C2413  1  0.04082000  0.40136300  0.04082000  1.0
  C  C2414  1  0.04082000  0.51699700  0.04082000  1.0
  C  C2415  1  0.40136300  0.04082000  0.51699700  1.0
  C  C2416  1  0.51699700  0.40136300  0.04082000  1.0
  C  C2417  1  0.04082000  0.04082000  0.51699700  1.0
  C  C2418  1  0.04082000  0.04082000  0.40136300  1.0
  C  C2419  1  0.40136300  0.51699700  0.04082000  1.0
  C  C2420  1  0.51699700  0.04082000  0.04082000  1.0
  C  C2421  1  0.04082000  0.51699700  0.40136300  1.0
  C  C2422  1  0.04082000  0.40136300  0.51699700  1.0
  C  C2423  1  0.40136300  0.04082000  0.04082000  1.0
  C  C2496  1  0.97478000  0.97478000  0.56013640  1.0
  C  C2497  1  0.49030360  0.56013640  0.97478000  1.0
  C  C2498  1  0.56013640  0.49030360  0.97478000  1.0
  C  C2499  1  0.97478000  0.97478000  0.49030360  1.0
  C  C2500  1  0.97478000  0.56013640  0.97478000  1.0
  C  C2501  1  0.56013640  0.97478000  0.49030360  1.0
  C  C2502  1  0.49030360  0.97478000  0.56013640  1.0
  C  C2503  1  0.97478000  0.49030360  0.97478000  1.0
  C  C2504  1  0.56013640  0.97478000  0.97478000  1.0
  C  C2505  1  0.97478000  0.49030360  0.56013640  1.0
  C  C2506  1  0.97478000  0.56013640  0.49030360  1.0
  C  C2507  1  0.49030360  0.97478000  0.97478000  1.0
  C  C2508  1  0.50969640  0.02522000  0.43986360  1.0
  C  C2509  1  0.02522000  0.43986360  0.02522000  1.0
  C  C2510  1  0.02522000  0.50969640  0.02522000  1.0
  C  C2511  1  0.43986360  0.02522000  0.50969640  1.0
  C  C2512  1  0.50969640  0.43986360  0.02522000  1.0
  C  C2513  1  0.02522000  0.02522000  0.50969640  1.0
  C  C2514  1  0.02522000  0.02522000  0.43986360  1.0
  C  C2515  1  0.43986360  0.50969640  0.02522000  1.0
  C  C2516  1  0.50969640  0.02522000  0.02522000  1.0
  C  C2517  1  0.02522000  0.50969640  0.43986360  1.0
  C  C2518  1  0.02522000  0.43986360  0.50969640  1.0
  C  C2519  1  0.43986360  0.02522000  0.02522000  1.0
  Cu  Cu0  1  0.97272000  0.02728000  0.50000000  1.0
  Cu  Cu1  1  0.50000000  0.50000000  0.02728000  1.0
  Cu  Cu2  1  0.50000000  0.50000000  0.97272000  1.0
  Cu  Cu3  1  0.02728000  0.97272000  0.50000000  1.0
  Cu  Cu4  1  0.02728000  0.50000000  0.97272000  1.0
  Cu  Cu5  1  0.50000000  0.02728000  0.50000000  1.0
  Cu  Cu6  1  0.50000000  0.97272000  0.50000000  1.0
  Cu  Cu7  1  0.97272000  0.50000000  0.02728000  1.0
  Cu  Cu8  1  0.50000000  0.97272000  0.02728000  1.0
  Cu  Cu9  1  0.02728000  0.50000000  0.50000000  1.0
  Cu  Cu10  1  0.97272000  0.50000000  0.50000000  1.0
  Cu  Cu11  1  0.50000000  0.02728000  0.97272000  1.0
  H  H384  1  0.81560000  0.90040000  0.81560000  1.0
  H  H385  1  0.46840000  0.81560000  0.90040000  1.0
  H  H386  1  0.81560000  0.46840000  0.81560000  1.0
  H  H387  1  0.90040000  0.81560000  0.46840000  1.0
  H  H388  1  0.90040000  0.81560000  0.81560000  1.0
  H  H389  1  0.81560000  0.90040000  0.46840000  1.0
  H  H390  1  0.46840000  0.81560000  0.81560000  1.0
  H  H391  1  0.81560000  0.46840000  0.90040000  1.0
  H  H392  1  0.81560000  0.81560000  0.90040000  1.0
  H  H393  1  0.90040000  0.46840000  0.81560000  1.0
  H  H394  1  0.81560000  0.81560000  0.46840000  1.0
  H  H395  1  0.46840000  0.90040000  0.81560000  1.0
  H  H396  1  0.53160000  0.09960000  0.18440000  1.0
  H  H397  1  0.18440000  0.18440000  0.09960000  1.0
  H  H398  1  0.09960000  0.53160000  0.18440000  1.0
  H  H399  1  0.18440000  0.18440000  0.53160000  1.0
  H  H400  1  0.53160000  0.18440000  0.18440000  1.0
  H  H401  1  0.18440000  0.09960000  0.53160000  1.0
  H  H402  1  0.09960000  0.18440000  0.18440000  1.0
  H  H403  1  0.18440000  0.53160000  0.09960000  1.0
  H  H404  1  0.53160000  0.18440000  0.09960000  1.0
  H  H405  1  0.18440000  0.53160000  0.18440000  1.0
  H  H406  1  0.09960000  0.18440000  0.53160000  1.0
  H  H407  1  0.18440000  0.09960000  0.18440000  1.0
  H  H864  1  0.83730000  0.92190000  0.76530000  1.0
  H  H865  1  0.47550000  0.76530000  0.92190000  1.0
  H  H866  1  0.76530000  0.47550000  0.83730000  1.0
  H  H867  1  0.92190000  0.83730000  0.47550000  1.0
  H  H868  1  0.92190000  0.76530000  0.83730000  1.0
  H  H869  1  0.76530000  0.92190000  0.47550000  1.0
  H  H870  1  0.47550000  0.83730000  0.76530000  1.0
  H  H871  1  0.83730000  0.47550000  0.92190000  1.0
  H  H872  1  0.76530000  0.83730000  0.92190000  1.0
  H  H873  1  0.92190000  0.47550000  0.76530000  1.0
  H  H874  1  0.83730000  0.76530000  0.47550000  1.0
  H  H875  1  0.47550000  0.92190000  0.83730000  1.0
  H  H876  1  0.52450000  0.07810000  0.23470000  1.0
  H  H877  1  0.16270000  0.23470000  0.07810000  1.0
  H  H878  1  0.07810000  0.52450000  0.16270000  1.0
  H  H879  1  0.23470000  0.16270000  0.52450000  1.0
  H  H880  1  0.52450000  0.23470000  0.16270000  1.0
  H  H881  1  0.16270000  0.07810000  0.52450000  1.0
  H  H882  1  0.07810000  0.16270000  0.23470000  1.0
  H  H883  1  0.23470000  0.52450000  0.07810000  1.0
  H  H884  1  0.52450000  0.16270000  0.07810000  1.0
  H  H885  1  0.16270000  0.52450000  0.23470000  1.0
  H  H886  1  0.07810000  0.23470000  0.52450000  1.0
  H  H887  1  0.23470000  0.07810000  0.16270000  1.0
  H  H960  1  0.16270000  0.07810000  0.23470000  1.0
  H  H961  1  0.52450000  0.23470000  0.07810000  1.0
  H  H962  1  0.23470000  0.52450000  0.16270000  1.0
  H  H963  1  0.07810000  0.16270000  0.52450000  1.0
  H  H964  1  0.07810000  0.23470000  0.16270000  1.0
  H  H965  1  0.23470000  0.07810000  0.52450000  1.0
  H  H966  1  0.52450000  0.16270000  0.23470000  1.0
  H  H967  1  0.16270000  0.52450000  0.07810000  1.0
  H  H968  1  0.23470000  0.16270000  0.07810000  1.0
  H  H969  1  0.07810000  0.52450000  0.23470000  1.0
  H  H970  1  0.16270000  0.23470000  0.52450000  1.0
  H  H971  1  0.52450000  0.07810000  0.16270000  1.0
  H  H972  1  0.47550000  0.92190000  0.76530000  1.0
  H  H973  1  0.83730000  0.76530000  0.92190000  1.0
  H  H974  1  0.92190000  0.47550000  0.83730000  1.0
  H  H975  1  0.76530000  0.83730000  0.47550000  1.0
  H  H976  1  0.47550000  0.76530000  0.83730000  1.0
  H  H977  1  0.83730000  0.92190000  0.47550000  1.0
  H  H978  1  0.92190000  0.83730000  0.76530000  1.0
  H  H979  1  0.76530000  0.47550000  0.92190000  1.0
  H  H980  1  0.47550000  0.83730000  0.92190000  1.0
  H  H981  1  0.83730000  0.47550000  0.76530000  1.0
  H  H982  1  0.92190000  0.76530000  0.47550000  1.0
  H  H983  1  0.76530000  0.92190000  0.83730000  1.0
  H  H1248  1  0.86420000  0.94880000  0.70740000  1.0
  H  H1249  1  0.47960000  0.70740000  0.94880000  1.0
  H  H1250  1  0.70740000  0.47960000  0.86420000  1.0
  H  H1251  1  0.94880000  0.86420000  0.47960000  1.0
  H  H1252  1  0.94880000  0.70740000  0.86420000  1.0
  H  H1253  1  0.70740000  0.94880000  0.47960000  1.0
  H  H1254  1  0.47960000  0.86420000  0.70740000  1.0
  H  H1255  1  0.86420000  0.47960000  0.94880000  1.0
  H  H1256  1  0.70740000  0.86420000  0.94880000  1.0
  H  H1257  1  0.94880000  0.47960000  0.70740000  1.0
  H  H1258  1  0.86420000  0.70740000  0.47960000  1.0
  H  H1259  1  0.47960000  0.94880000  0.86420000  1.0
  H  H1260  1  0.52040000  0.05120000  0.29260000  1.0
  H  H1261  1  0.13580000  0.29260000  0.05120000  1.0
  H  H1262  1  0.05120000  0.52040000  0.13580000  1.0
  H  H1263  1  0.29260000  0.13580000  0.52040000  1.0
  H  H1264  1  0.52040000  0.29260000  0.13580000  1.0
  H  H1265  1  0.13580000  0.05120000  0.52040000  1.0
  H  H1266  1  0.05120000  0.13580000  0.29260000  1.0
  H  H1267  1  0.29260000  0.52040000  0.05120000  1.0
  H  H1268  1  0.52040000  0.13580000  0.05120000  1.0
  H  H1269  1  0.13580000  0.52040000  0.29260000  1.0
  H  H1270  1  0.05120000  0.29260000  0.52040000  1.0
  H  H1271  1  0.29260000  0.05120000  0.13580000  1.0
  H  H1344  1  0.13580000  0.05120000  0.29260000  1.0
  H  H1345  1  0.52040000  0.29260000  0.05120000  1.0
  H  H1346  1  0.29260000  0.52040000  0.13580000  1.0
  H  H1347  1  0.05120000  0.13580000  0.52040000  1.0
  H  H1348  1  0.05120000  0.29260000  0.13580000  1.0
  H  H1349  1  0.29260000  0.05120000  0.52040000  1.0
  H  H1350  1  0.52040000  0.13580000  0.29260000  1.0
  H  H1351  1  0.13580000  0.52040000  0.05120000  1.0
  H  H1352  1  0.29260000  0.13580000  0.05120000  1.0
  H  H1353  1  0.05120000  0.52040000  0.29260000  1.0
  H  H1354  1  0.13580000  0.29260000  0.52040000  1.0
  H  H1355  1  0.52040000  0.05120000  0.13580000  1.0
  H  H1356  1  0.47960000  0.94880000  0.70740000  1.0
  H  H1357  1  0.86420000  0.70740000  0.94880000  1.0
  H  H1358  1  0.94880000  0.47960000  0.86420000  1.0
  H  H1359  1  0.70740000  0.86420000  0.47960000  1.0
  H  H1360  1  0.47960000  0.70740000  0.86420000  1.0
  H  H1361  1  0.86420000  0.94880000  0.47960000  1.0
  H  H1362  1  0.94880000  0.86420000  0.70740000  1.0
  H  H1363  1  0.70740000  0.47960000  0.94880000  1.0
  H  H1364  1  0.47960000  0.86420000  0.94880000  1.0
  H  H1365  1  0.86420000  0.47960000  0.70740000  1.0
  H  H1366  1  0.94880000  0.70740000  0.47960000  1.0
  H  H1367  1  0.70740000  0.94880000  0.86420000  1.0
  H  H1824  1  0.88770000  0.97270000  0.66270000  1.0
  H  H1825  1  0.47690000  0.66270000  0.97270000  1.0
  H  H1826  1  0.66270000  0.47690000  0.88770000  1.0
  H  H1827  1  0.97270000  0.88770000  0.47690000  1.0
  H  H1828  1  0.97270000  0.66270000  0.88770000  1.0
  H  H1829  1  0.66270000  0.97270000  0.47690000  1.0
  H  H1830  1  0.47690000  0.88770000  0.66270000  1.0
  H  H1831  1  0.88770000  0.47690000  0.97270000  1.0
  H  H1832  1  0.66270000  0.88770000  0.97270000  1.0
  H  H1833  1  0.97270000  0.47690000  0.66270000  1.0
  H  H1834  1  0.88770000  0.66270000  0.47690000  1.0
  H  H1835  1  0.47690000  0.97270000  0.88770000  1.0
  H  H1836  1  0.52310000  0.02730000  0.33730000  1.0
  H  H1837  1  0.11230000  0.33730000  0.02730000  1.0
  H  H1838  1  0.02730000  0.52310000  0.11230000  1.0
  H  H1839  1  0.33730000  0.11230000  0.52310000  1.0
  H  H1840  1  0.52310000  0.33730000  0.11230000  1.0
  H  H1841  1  0.11230000  0.02730000  0.52310000  1.0
  H  H1842  1  0.02730000  0.11230000  0.33730000  1.0
  H  H1843  1  0.33730000  0.52310000  0.02730000  1.0
  H  H1844  1  0.52310000  0.11230000  0.02730000  1.0
  H  H1845  1  0.11230000  0.52310000  0.33730000  1.0
  H  H1846  1  0.02730000  0.33730000  0.52310000  1.0
  H  H1847  1  0.33730000  0.02730000  0.11230000  1.0
  H  H1920  1  0.11230000  0.02730000  0.33730000  1.0
  H  H1921  1  0.52310000  0.33730000  0.02730000  1.0
  H  H1922  1  0.33730000  0.52310000  0.11230000  1.0
  H  H1923  1  0.02730000  0.11230000  0.52310000  1.0
  H  H1924  1  0.02730000  0.33730000  0.11230000  1.0
  H  H1925  1  0.33730000  0.02730000  0.52310000  1.0
  H  H1926  1  0.52310000  0.11230000  0.33730000  1.0
  H  H1927  1  0.11230000  0.52310000  0.02730000  1.0
  H  H1928  1  0.33730000  0.11230000  0.02730000  1.0
  H  H1929  1  0.02730000  0.52310000  0.33730000  1.0
  H  H1930  1  0.11230000  0.33730000  0.52310000  1.0
  H  H1931  1  0.52310000  0.02730000  0.11230000  1.0
  H  H1932  1  0.47690000  0.97270000  0.66270000  1.0
  H  H1933  1  0.88770000  0.66270000  0.97270000  1.0
  H  H1934  1  0.97270000  0.47690000  0.88770000  1.0
  H  H1935  1  0.66270000  0.88770000  0.47690000  1.0
  H  H1936  1  0.47690000  0.66270000  0.88770000  1.0
  H  H1937  1  0.88770000  0.97270000  0.47690000  1.0
  H  H1938  1  0.97270000  0.88770000  0.66270000  1.0
  H  H1939  1  0.66270000  0.47690000  0.97270000  1.0
  H  H1940  1  0.47690000  0.88770000  0.97270000  1.0
  H  H1941  1  0.88770000  0.47690000  0.66270000  1.0
  H  H1942  1  0.97270000  0.66270000  0.47690000  1.0
  H  H1943  1  0.66270000  0.97270000  0.88770000  1.0
  H  H2208  1  0.91310000  0.99810000  0.60370000  1.0
  H  H2209  1  0.48510000  0.60370000  0.99810000  1.0
  H  H2210  1  0.60370000  0.48510000  0.91310000  1.0
  H  H2211  1  0.99810000  0.91310000  0.48510000  1.0
  H  H2212  1  0.99810000  0.60370000  0.91310000  1.0
  H  H2213  1  0.60370000  0.99810000  0.48510000  1.0
  H  H2214  1  0.48510000  0.91310000  0.60370000  1.0
  H  H2215  1  0.91310000  0.48510000  0.99810000  1.0
  H  H2216  1  0.60370000  0.91310000  0.99810000  1.0
  H  H2217  1  0.99810000  0.48510000  0.60370000  1.0
  H  H2218  1  0.91310000  0.60370000  0.48510000  1.0
  H  H2219  1  0.48510000  0.99810000  0.91310000  1.0
  H  H2220  1  0.51490000  0.00190000  0.39630000  1.0
  H  H2221  1  0.08690000  0.39630000  0.00190000  1.0
  H  H2222  1  0.00190000  0.51490000  0.08690000  1.0
  H  H2223  1  0.39630000  0.08690000  0.51490000  1.0
  H  H2224  1  0.51490000  0.39630000  0.08690000  1.0
  H  H2225  1  0.08690000  0.00190000  0.51490000  1.0
  H  H2226  1  0.00190000  0.08690000  0.39630000  1.0
  H  H2227  1  0.39630000  0.51490000  0.00190000  1.0
  H  H2228  1  0.51490000  0.08690000  0.00190000  1.0
  H  H2229  1  0.08690000  0.51490000  0.39630000  1.0
  H  H2230  1  0.00190000  0.39630000  0.51490000  1.0
  H  H2231  1  0.39630000  0.00190000  0.08690000  1.0
  H  H2304  1  0.08690000  0.00190000  0.39630000  1.0
  H  H2305  1  0.51490000  0.39630000  0.00190000  1.0
  H  H2306  1  0.39630000  0.51490000  0.08690000  1.0
  H  H2307  1  0.00190000  0.08690000  0.51490000  1.0
  H  H2308  1  0.00190000  0.39630000  0.08690000  1.0
  H  H2309  1  0.39630000  0.00190000  0.51490000  1.0
  H  H2310  1  0.51490000  0.08690000  0.39630000  1.0
  H  H2311  1  0.08690000  0.51490000  0.00190000  1.0
  H  H2312  1  0.39630000  0.08690000  0.00190000  1.0
  H  H2313  1  0.00190000  0.51490000  0.39630000  1.0
  H  H2314  1  0.08690000  0.39630000  0.51490000  1.0
  H  H2315  1  0.51490000  0.00190000  0.08690000  1.0
  H  H2316  1  0.48510000  0.99810000  0.60370000  1.0
  H  H2317  1  0.91310000  0.60370000  0.99810000  1.0
  H  H2318  1  0.99810000  0.48510000  0.91310000  1.0
  H  H2319  1  0.60370000  0.91310000  0.48510000  1.0
  H  H2320  1  0.48510000  0.60370000  0.91310000  1.0
  H  H2321  1  0.91310000  0.99810000  0.48510000  1.0
  H  H2322  1  0.99810000  0.91310000  0.60370000  1.0
  H  H2323  1  0.60370000  0.48510000  0.99810000  1.0
  H  H2324  1  0.48510000  0.91310000  0.99810000  1.0
  H  H2325  1  0.91310000  0.48510000  0.60370000  1.0
  H  H2326  1  0.99810000  0.60370000  0.48510000  1.0
  H  H2327  1  0.60370000  0.99810000  0.91310000  1.0
  O  O48  1  0.95713300  0.00396900  0.54748900  1.0
  O  O49  1  0.49140900  0.54748900  0.00396900  1.0
  O  O50  1  0.54748900  0.49140900  0.95713300  1.0
  O  O51  1  0.00396900  0.95713300  0.49140900  1.0
  O  O52  1  0.00396900  0.54748900  0.95713300  1.0
  O  O53  1  0.54748900  0.00396900  0.49140900  1.0
  O  O54  1  0.49140900  0.95713300  0.54748900  1.0
  O  O55  1  0.95713300  0.49140900  0.00396900  1.0
  O  O56  1  0.54748900  0.95713300  0.00396900  1.0
  O  O57  1  0.00396900  0.49140900  0.54748900  1.0
  O  O58  1  0.95713300  0.54748900  0.49140900  1.0
  O  O59  1  0.49140900  0.00396900  0.95713300  1.0
  O  O60  1  0.50859100  0.99603100  0.45251100  1.0
  O  O61  1  0.04286700  0.45251100  0.99603100  1.0
  O  O62  1  0.99603100  0.50859100  0.04286700  1.0
  O  O63  1  0.45251100  0.04286700  0.50859100  1.0
  O  O64  1  0.50859100  0.45251100  0.04286700  1.0
  O  O65  1  0.04286700  0.99603100  0.50859100  1.0
  O  O66  1  0.99603100  0.04286700  0.45251100  1.0
  O  O67  1  0.45251100  0.50859100  0.99603100  1.0
  O  O68  1  0.50859100  0.04286700  0.99603100  1.0
  O  O69  1  0.04286700  0.50859100  0.45251100  1.0
  O  O70  1  0.99603100  0.45251100  0.50859100  1.0
  O  O71  1  0.45251100  0.99603100  0.04286700  1.0
  O  O144  1  0.04286700  0.99603100  0.45251100  1.0
  O  O145  1  0.50859100  0.45251100  0.99603100  1.0
  O  O146  1  0.45251100  0.50859100  0.04286700  1.0
  O  O147  1  0.99603100  0.04286700  0.50859100  1.0
  O  O148  1  0.99603100  0.45251100  0.04286700  1.0
  O  O149  1  0.45251100  0.99603100  0.50859100  1.0
  O  O150  1  0.50859100  0.04286700  0.45251100  1.0
  O  O151  1  0.04286700  0.50859100  0.99603100  1.0
  O  O152  1  0.45251100  0.04286700  0.99603100  1.0
  O  O153  1  0.99603100  0.50859100  0.45251100  1.0
  O  O154  1  0.04286700  0.45251100  0.50859100  1.0
  O  O155  1  0.50859100  0.99603100  0.04286700  1.0
  O  O156  1  0.49140900  0.00396900  0.54748900  1.0
  O  O157  1  0.95713300  0.54748900  0.00396900  1.0
  O  O158  1  0.00396900  0.49140900  0.95713300  1.0
  O  O159  1  0.54748900  0.95713300  0.49140900  1.0
  O  O160  1  0.49140900  0.54748900  0.95713300  1.0
  O  O161  1  0.95713300  0.00396900  0.49140900  1.0
  O  O162  1  0.00396900  0.95713300  0.54748900  1.0
  O  O163  1  0.54748900  0.49140900  0.00396900  1.0
  O  O164  1  0.49140900  0.95713300  0.00396900  1.0
  O  O165  1  0.95713300  0.49140900  0.54748900  1.0
  O  O166  1  0.00396900  0.54748900  0.49140900  1.0
  O  O167  1  0.54748900  0.00396900  0.95713300  1.0
