# generated using pymatgen
data_La2CuH28C32S4N2O19
_symmetry_space_group_name_H-M   'P 1'
_cell_length_a   13.19983000
_cell_length_b   16.63993000
_cell_length_c   21.55916000
_cell_angle_alpha   90.00000000
_cell_angle_beta   96.41520000
_cell_angle_gamma   90.00000000
_symmetry_Int_Tables_number   1
_chemical_formula_structural   La2CuH28C32S4N2O19
_chemical_formula_sum   'La8 Cu4 H112 C128 S16 N8 O76'
_cell_volume   4705.69421563
_cell_formula_units_Z   4
loop_
 _symmetry_equiv_pos_site_id
 _symmetry_equiv_pos_as_xyz
  1  'x, y, z'
loop_
 _atom_site_type_symbol
 _atom_site_label
 _atom_site_symmetry_multiplicity
 _atom_site_fract_x
 _atom_site_fract_y
 _atom_site_fract_z
 _atom_site_occupancy
  Cu  Cu0  1  0.24401400  0.23919300  0.50229200  1
  Cu  Cu1  1  0.25598600  0.73919300  0.00000000  1
  Cu  Cu2  1  0.75598600  0.76080700  0.49770800  1
  Cu  Cu3  1  0.74401400  0.26080700  0.00229200  1
  La  La4  1  0.63056917  0.75782113  0.31545711  1
  La  La5  1  0.86943083  0.25782113  0.18454289  1
  La  La6  1  0.36943083  0.24217887  0.68454289  1
  La  La7  1  0.13056917  0.74217887  0.81545711  1
  La  La8  1  0.85039783  0.75773786  0.69469511  1
  La  La9  1  0.64960217  0.25773786  0.80530489  1
  La  La10  1  0.14960217  0.24226214  0.30530489  1
  La  La11  1  0.35039783  0.74226214  0.19469511  1
  C  C12  1  0.12874000  0.42422000  0.59962000  1
  C  C13  1  0.37126000  0.92422000  0.90038000  1
  C  C14  1  0.87126000  0.57578000  0.40038000  1
  C  C15  1  0.62874000  0.07578000  0.09962000  1
  C  C16  1  0.03784000  0.45043000  0.57192000  1
  C  C17  1  0.46216000  0.95043000  0.92808000  1
  C  C18  1  0.96216000  0.54957000  0.42808000  1
  C  C19  1  0.53784000  0.04957000  0.07192000  1
  H  H20  1  0.00390000  0.42670000  0.53650000  1
  H  H21  1  0.49610000  0.92670000  0.96350000  1
  H  H22  1  0.00000000  0.57330000  0.46350000  1
  H  H23  1  0.50390000  0.07330000  0.03650000  1
  C  C24  1  0.00000000  0.51713000  0.60192000  1
  C  C25  1  0.50064000  0.01713000  0.89808000  1
  C  C26  1  0.00064000  0.48287000  0.39808000  1
  C  C27  1  0.49936000  0.98287000  0.10192000  1
  H  H28  1  0.93800000  0.54230000  0.58850000  1
  H  H29  1  0.56200000  0.04230000  0.91150000  1
  H  H30  1  0.06200000  0.45770000  0.41150000  1
  H  H31  1  0.43800000  0.95770000  0.08850000  1
  C  C32  1  0.06313000  0.54042000  0.65312000  1
  C  C33  1  0.43687000  0.04042000  0.84688000  1
  C  C34  1  0.93687000  0.45958000  0.34688000  1
  C  C35  1  0.56313000  0.95958000  0.15312000  1
  C  C36  1  0.18923000  0.35482000  0.58052000  1
  C  C37  1  0.31077000  0.85482000  0.91948000  1
  C  C38  1  0.81077000  0.64518000  0.41948000  1
  C  C39  1  0.68923000  0.14518000  0.08052000  1
  C  C40  1  0.04504000  0.60973000  0.69392000  1
  C  C41  1  0.45496000  0.10973000  0.80608000  1
  C  C42  1  0.95496000  0.39027000  0.30608000  1
  C  C43  1  0.54504000  0.89027000  0.19392000  1
  C  C44  1  0.33223000  0.04632000  0.40092000  1
  C  C45  1  0.16777000  0.54632000  0.09908000  1
  C  C46  1  0.66777000  0.95368000  0.59908000  1
  C  C47  1  0.83223000  0.45368000  0.90092000  1
  C  C48  1  0.42594000  0.01813000  0.42312000  1
  C  C49  1  0.07406000  0.51813000  0.07688000  1
  C  C50  1  0.57406000  0.98187000  0.57688000  1
  C  C51  1  0.92594000  0.48187000  0.92312000  1
  H  H52  1  0.46790000  0.04320000  0.45480000  1
  H  H53  1  0.03210000  0.54320000  0.04520000  1
  H  H54  1  0.53210000  0.95680000  0.54520000  1
  H  H55  1  0.96790000  0.45680000  0.95480000  1
  C  C56  1  0.45334000  0.94737000  0.39372000  1
  C  C57  1  0.04666000  0.44737000  0.10628000  1
  C  C58  1  0.54666000  0.05263000  0.60628000  1
  C  C59  1  0.95334000  0.55263000  0.89372000  1
  H  H60  1  0.51500000  0.92070000  0.40330000  1
  H  H61  1  0.98500000  0.42070000  0.09670000  1
  H  H62  1  0.48500000  0.07930000  0.59670000  1
  H  H63  1  0.01500000  0.57930000  0.90330000  1
  C  C64  1  0.37773000  0.92278000  0.34902000  1
  C  C65  1  0.12227000  0.42278000  0.15098000  1
  C  C66  1  0.62227000  0.07722000  0.65098000  1
  C  C67  1  0.87773000  0.57722000  0.84902000  1
  C  C68  1  0.27973000  0.12002000  0.41982000  1
  C  C69  1  0.22027000  0.62002000  0.08018000  1
  C  C70  1  0.72027000  0.87998000  0.58018000  1
  C  C71  1  0.77973000  0.37998000  0.91982000  1
  C  C72  1  0.37323000  0.85158000  0.30672000  1
  C  C73  1  0.12677000  0.35158000  0.19328000  1
  C  C74  1  0.62677000  0.14842000  0.69328000  1
  C  C75  1  0.87323000  0.64842000  0.80672000  1
  C  C76  1  0.15523000  0.04502000  0.60142000  1
  C  C77  1  0.34477000  0.54502000  0.89858000  1
  C  C78  1  0.84477000  0.95498000  0.39858000  1
  C  C79  1  0.65523000  0.45498000  0.10142000  1
  C  C80  1  0.06234000  0.01793000  0.57682000  1
  C  C81  1  0.43766000  0.51793000  0.92318000  1
  C  C82  1  0.93766000  0.98207000  0.42318000  1
  C  C83  1  0.56234000  0.48207000  0.07682000  1
  H  H84  1  0.02300000  0.04380000  0.54420000  1
  H  H85  1  0.47700000  0.54380000  0.95580000  1
  H  H86  1  0.97700000  0.95620000  0.45580000  1
  H  H87  1  0.52300000  0.45620000  0.04420000  1
  C  C88  1  0.03114000  0.94747000  0.60492000  1
  C  C89  1  0.46886000  0.44747000  0.89508000  1
  C  C90  1  0.96886000  0.05253000  0.39508000  1
  C  C91  1  0.53114000  0.55253000  0.10492000  1
  H  H92  1  0.96920000  0.92190000  0.59350000  1
  H  H93  1  0.53080000  0.42190000  0.90650000  1
  H  H94  1  0.03080000  0.07810000  0.40650000  1
  H  H95  1  0.46920000  0.57810000  0.09350000  1
  C  C96  1  0.10323000  0.92097000  0.65122000  1
  C  C97  1  0.39677000  0.42097000  0.84878000  1
  C  C98  1  0.89677000  0.07903000  0.34878000  1
  C  C99  1  0.60323000  0.57903000  0.15122000  1
  C  C100  1  0.21054000  0.11722000  0.58292000  1
  C  C101  1  0.28946000  0.61722000  0.91708000  1
  C  C102  1  0.78946000  0.88278000  0.41708000  1
  C  C103  1  0.71054000  0.38278000  0.08292000  1
  C  C104  1  0.09894000  0.84857000  0.69042000  1
  C  C105  1  0.40106000  0.34857000  0.80958000  1
  C  C106  1  0.90106000  0.15143000  0.30958000  1
  C  C107  1  0.59894000  0.65143000  0.19042000  1
  C  C108  1  0.36403000  0.42282000  0.40542000  1
  C  C109  1  0.13597000  0.92282000  0.09458000  1
  C  C110  1  0.63597000  0.57718000  0.59458000  1
  C  C111  1  0.86403000  0.07718000  0.90542000  1
  C  C112  1  0.45824000  0.44763000  0.42922000  1
  C  C113  1  0.04176000  0.94763000  0.07078000  1
  C  C114  1  0.54176000  0.55237000  0.57078000  1
  C  C115  1  0.95824000  0.05237000  0.92922000  1
  H  H116  1  0.49570000  0.42310000  0.46310000  1
  H  H117  1  0.00430000  0.92310000  0.03690000  1
  H  H118  1  0.50430000  0.57690000  0.53690000  1
  H  H119  1  0.00000000  0.07690000  0.96310000  1
  C  C120  1  0.49364000  0.51383000  0.39762000  1
  C  C121  1  0.00636000  0.01383000  0.10238000  1
  C  C122  1  0.50636000  0.48617000  0.60238000  1
  C  C123  1  0.99364000  0.98617000  0.89762000  1
  H  H124  1  0.55670000  0.53800000  0.40810000  1
  H  H125  1  0.94330000  0.03800000  0.09190000  1
  H  H126  1  0.44330000  0.46200000  0.59190000  1
  H  H127  1  0.05670000  0.96200000  0.90810000  1
  C  C128  1  0.42414000  0.53853000  0.34942000  1
  C  C129  1  0.07586000  0.03853000  0.15058000  1
  C  C130  1  0.57586000  0.46147000  0.65058000  1
  C  C131  1  0.92414000  0.96147000  0.84942000  1
  C  C132  1  0.30473000  0.35382000  0.42542000  1
  C  C133  1  0.19527000  0.85382000  0.07458000  1
  C  C134  1  0.69527000  0.64618000  0.57458000  1
  C  C135  1  0.80473000  0.14618000  0.92542000  1
  C  C136  1  0.43604000  0.60823000  0.30722000  1
  C  C137  1  0.06396000  0.10823000  0.19278000  1
  C  C138  1  0.56396000  0.39177000  0.69278000  1
  C  C139  1  0.93604000  0.89177000  0.80722000  1
  O  O244  1  0.15432000  0.32164160  0.52993150  1
  O  O245  1  0.34568000  0.82164160  0.97006850  1
  O  O246  1  0.84568000  0.67835840  0.47006850  1
  O  O247  1  0.65432000  0.17835840  0.02993150  1
  O  O260  1  0.26822000  0.33570170  0.61361150  1
  O  O261  1  0.23178000  0.83570170  0.88638850  1
  O  O262  1  0.73178000  0.66429830  0.38638850  1
  O  O263  1  0.76822000  0.16429830  0.11361150  1
  O  O264  1  0.96067000  0.64239190  0.68182160  1
  O  O265  1  0.53933000  0.14239190  0.81817840  1
  O  O266  1  0.03933000  0.35760810  0.31817840  1
  O  O267  1  0.46067000  0.85760810  0.18182160  1
  O  O268  1  0.11332000  0.62929180  0.73645150  1
  O  O269  1  0.38668000  0.12929180  0.76354850  1
  O  O270  1  0.88668000  0.37070820  0.26354850  1
  O  O271  1  0.61332000  0.87070820  0.23645150  1
  O  O272  1  0.32432000  0.15584160  0.46724140  1
  O  O273  1  0.17568000  0.65584160  0.03275860  1
  O  O274  1  0.67568000  0.84415840  0.53275860  1
  O  O275  1  0.82432000  0.34415840  0.96724140  1
  O  O276  1  0.19742000  0.14147160  0.38933140  1
  O  O277  1  0.30258000  0.64147160  0.11066860  1
  O  O278  1  0.80258000  0.85852840  0.61066860  1
  O  O279  1  0.69742000  0.35852840  0.88933140  1
  O  O280  1  0.29232000  0.83895810  0.27208150  1
  O  O281  1  0.20768000  0.33895810  0.22791850  1
  O  O282  1  0.70768000  0.16104190  0.72791850  1
  O  O283  1  0.79232000  0.66104190  0.77208150  1
  O  O284  1  0.45132000  0.80722830  0.30707140  1
  O  O285  1  0.04868000  0.30722830  0.19292860  1
  O  O286  1  0.54868000  0.19277170  0.69292860  1
  O  O287  1  0.95132000  0.69277170  0.80707140  1
  O  O288  1  0.29482000  0.13501170  0.61230150  1
  O  O289  1  0.20518000  0.63501170  0.88769850  1
  O  O290  1  0.70518000  0.86498830  0.38769850  1
  O  O291  1  0.79482000  0.36498830  0.11230150  1
  O  O292  1  0.16562000  0.15552160  0.53706150  1
  O  O293  1  0.33438000  0.65552160  0.96293850  1
  O  O294  1  0.83438000  0.84447840  0.46293850  1
  O  O295  1  0.66562000  0.34447840  0.03706150  1
  O  O296  1  0.17513000  0.83138000  0.72776170  1
  O  O297  1  0.32487000  0.33138000  0.77223830  1
  O  O298  1  0.82487000  0.16862000  0.27223830  1
  O  O299  1  0.67513000  0.66862000  0.22776170  1
  O  O300  1  0.01893000  0.80757810  0.68327170  1
  O  O301  1  0.48107000  0.30757810  0.81672830  1
  O  O302  1  0.98107000  0.19242190  0.31672830  1
  O  O303  1  0.51893000  0.69242190  0.18327170  1
  O  O304  1  0.33482000  0.32324160  0.47742140  1
  O  O305  1  0.16518000  0.82324160  0.02257860  1
  O  O306  1  0.66518000  0.67675840  0.52257860  1
  O  O307  1  0.83482000  0.17675840  0.97742140  1
  O  O308  1  0.22922000  0.32918160  0.39006140  1
  O  O309  1  0.27078000  0.82918160  0.10993860  1
  O  O310  1  0.77078000  0.67081840  0.60993860  1
  O  O311  1  0.72922000  0.17081840  0.89006140  1
  O  O312  1  0.35993000  0.62970190  0.27004160  1
  O  O313  1  0.14007000  0.12970190  0.22995840  1
  O  O314  1  0.64007000  0.37029810  0.72995840  1
  O  O315  1  0.85993000  0.87029810  0.77004160  1
  O  O316  1  0.52243000  0.63878180  0.31126170  1
  O  O317  1  0.97757000  0.13878180  0.18873830  1
  O  O318  1  0.47757000  0.36121820  0.68873830  1
  O  O319  1  0.02243000  0.86121820  0.81126170  1
  S  S328  1  0.16946900  0.48078700  0.66397600  1
  S  S329  1  0.33053100  0.98078700  0.83602400  1
  S  S330  1  0.83053100  0.51921300  0.33602400  1
  S  S331  1  0.66946900  0.01921300  0.16397600  1
  S  S332  1  0.27450900  0.98625400  0.34276500  1
  S  S333  1  0.22549100  0.48625400  0.15723500  1
  S  S334  1  0.72549100  0.01374600  0.65723500  1
  S  S335  1  0.77450900  0.51374600  0.84276500  1
  S  S336  1  0.20701900  0.98394300  0.66083600  1
  S  S337  1  0.29298100  0.48394300  0.83916400  1
  S  S338  1  0.79298100  0.01605700  0.33916400  1
  S  S339  1  0.70701900  0.51605700  0.16083600  1
  S  S340  1  0.31557900  0.48137600  0.34287500  1
  S  S341  1  0.18442100  0.98137600  0.15712500  1
  S  S342  1  0.68442100  0.51862400  0.65712500  1
  S  S343  1  0.81557900  0.01862400  0.84287500  1
