data_image0
_chemical_formula_structural       Zn6C72Cl24O24
_chemical_formula_sum              "Zn6 C72 Cl24 O24"
_cell_length_a       27.8074
_cell_length_b       27.8078
_cell_length_c       27.8071
_cell_angle_alpha    109.471
_cell_angle_beta     109.47
_cell_angle_gamma    109.471

_symmetry_space_group_name_H-M    "P 1"
_symmetry_int_tables_number       1

loop_
  _symmetry_equiv_pos_as_xyz
  'x, y, z'

loop_
  _atom_site_type_symbol
  _atom_site_label
  _atom_site_symmetry_multiplicity
  _atom_site_fract_x
  _atom_site_fract_y
  _atom_site_fract_z
  _atom_site_occupancy
  Zn  Zn1       1.0  0.00000  0.54602  0.54602  1.0000
  Zn  Zn2       1.0  0.54602  0.00000  0.54602  1.0000
  Zn  Zn3       1.0  0.45398  0.45398  0.00000  1.0000
  Zn  Zn4       1.0  0.54602  0.54602  1.00000  1.0000
  Zn  Zn5       1.0  0.45398  0.00000  0.45398  1.0000
  Zn  Zn6       1.0  0.00000  0.45398  0.45398  1.0000
  C   C1        1.0  0.91936  0.41936  0.50001  1.0000
  C   C2        1.0  0.91936  0.50000  0.41936  1.0000
  C   C3        1.0  0.50000  0.33794  0.83793  1.0000
  C   C4        1.0  0.16206  0.66206  0.49999  1.0000
  C   C5        1.0  0.83794  0.50000  0.33794  1.0000
  C   C6        1.0  0.83794  0.33794  0.50001  1.0000
  C   C7        1.0  0.16206  0.50000  0.66206  1.0000
  C   C8        1.0  0.49999  0.83793  0.33793  1.0000
  C   C9        1.0  0.33794  0.83793  0.50000  1.0000
  C   C10       1.0  0.50000  0.16206  0.66206  1.0000
  C   C11       1.0  0.66206  0.16207  0.50000  1.0000
  C   C12       1.0  0.66206  0.50000  0.16206  1.0000
  C   C13       1.0  0.58064  0.50000  0.08064  1.0000
  C   C14       1.0  0.50000  0.66206  0.16207  1.0000
  C   C15       1.0  0.33794  0.50000  0.83794  1.0000
  C   C16       1.0  0.08064  0.50000  0.58064  1.0000
  C   C17       1.0  0.87519  0.50000  0.37519  1.0000
  C   C18       1.0  0.49999  0.87519  0.37519  1.0000
  C   C19       1.0  0.12481  0.50000  0.62481  1.0000
  C   C20       1.0  0.50000  0.12481  0.62480  1.0000
  C   C21       1.0  0.37519  0.87519  0.49999  1.0000
  C   C22       1.0  0.62480  0.49999  0.12480  1.0000
  C   C23       1.0  0.62481  0.12482  0.50001  1.0000
  C   C24       1.0  0.37519  0.50000  0.87519  1.0000
  C   C25       1.0  0.50000  0.62481  0.12481  1.0000
  C   C26       1.0  0.12481  0.62481  0.50000  1.0000
  C   C27       1.0  0.50000  0.37519  0.87519  1.0000
  C   C28       1.0  0.87519  0.37519  0.50000  1.0000
  C   C29       1.0  0.41936  0.91936  0.50000  1.0000
  C   C30       1.0  0.08064  0.58064  0.50000  1.0000
  C   C31       1.0  0.58064  0.08064  0.50000  1.0000
  C   C32       1.0  0.50000  0.08064  0.58064  1.0000
  C   C33       1.0  0.50000  0.58064  0.08064  1.0000
  C   C34       1.0  0.50000  0.91936  0.41936  1.0000
  C   C35       1.0  0.50000  0.41936  0.91935  1.0000
  C   C36       1.0  0.41936  0.50000  0.91936  1.0000
  C   C37       1.0  0.70278  0.44628  0.19989  1.0000
  C   C38       1.0  0.49847  0.70055  0.25433  1.0000
  C   C39       1.0  0.24621  0.50256  0.79995  1.0000
  C   C40       1.0  0.44627  0.24379  0.74609  1.0000
  C   C41       1.0  0.29739  0.49744  0.74365  1.0000
  C   C42       1.0  0.50152  0.75585  0.20207  1.0000
  C   C43       1.0  0.75361  0.55372  0.25650  1.0000
  C   C44       1.0  0.55374  0.29982  0.79752  1.0000
  C   C45       1.0  0.25577  0.75441  0.55378  1.0000
  C   C46       1.0  0.79722  0.55372  0.30010  1.0000
  C   C47       1.0  0.74398  0.29775  0.49813  1.0000
  C   C48       1.0  0.20260  0.50254  0.75634  1.0000
  C   C49       1.0  0.79963  0.24587  0.50189  1.0000
  C   C50       1.0  0.74638  0.44628  0.24351  1.0000
  C   C51       1.0  0.20063  0.70198  0.44621  1.0000
  C   C52       1.0  0.25380  0.49746  0.70006  1.0000
  C   C53       1.0  0.50153  0.79945  0.24568  1.0000
  C   C54       1.0  0.24424  0.74557  0.44621  1.0000
  C   C55       1.0  0.44627  0.20018  0.70249  1.0000
  C   C56       1.0  0.70038  0.25415  0.49814  1.0000
  C   C57       1.0  0.55374  0.25623  0.75391  1.0000
  C   C58       1.0  0.29936  0.79801  0.55378  1.0000
  C   C59       1.0  0.49845  0.74414  0.29792  1.0000
  C   C60       1.0  0.75602  0.20226  0.50187  1.0000
  C   C61       1.0  0.70659  0.50000  0.20659  1.0000
  C   C62       1.0  0.49999  0.70658  0.20658  1.0000
  C   C63       1.0  0.29341  0.50000  0.79341  1.0000
  C   C64       1.0  0.50000  0.29341  0.79341  1.0000
  C   C65       1.0  0.20659  0.70658  0.50000  1.0000
  C   C66       1.0  0.79341  0.50000  0.29341  1.0000
  C   C67       1.0  0.79342  0.29342  0.50001  1.0000
  C   C68       1.0  0.20659  0.50000  0.70659  1.0000
  C   C69       1.0  0.49999  0.79341  0.29341  1.0000
  C   C70       1.0  0.29341  0.79340  0.49999  1.0000
  C   C71       1.0  0.50000  0.20659  0.70658  1.0000
  C   C72       1.0  0.70659  0.20660  0.50001  1.0000
  Cl  Cl1       1.0  0.74199  0.37889  0.23554  1.0000
  Cl  Cl2       1.0  0.75796  0.62110  0.26450  1.0000
  Cl  Cl3       1.0  0.63798  0.25920  0.49583  1.0000
  Cl  Cl4       1.0  0.24165  0.50580  0.86279  1.0000
  Cl  Cl5       1.0  0.76338  0.14217  0.50419  1.0000
  Cl  Cl6       1.0  0.64339  0.37890  0.13686  1.0000
  Cl  Cl7       1.0  0.23720  0.74019  0.37874  1.0000
  Cl  Cl8       1.0  0.35700  0.49421  0.73586  1.0000
  Cl  Cl9       1.0  0.50341  0.76300  0.14176  1.0000
  Cl  Cl10      1.0  0.13852  0.64159  0.37875  1.0000
  Cl  Cl11      1.0  0.37886  0.23617  0.74133  1.0000
  Cl  Cl12      1.0  0.49650  0.73696  0.35820  1.0000
  Cl  Cl13      1.0  0.73659  0.35781  0.49575  1.0000
  Cl  Cl14      1.0  0.62114  0.36248  0.85731  1.0000
  Cl  Cl15      1.0  0.26284  0.75976  0.62125  1.0000
  Cl  Cl16      1.0  0.49658  0.63835  0.25959  1.0000
  Cl  Cl17      1.0  0.86206  0.24085  0.50426  1.0000
  Cl  Cl18      1.0  0.14296  0.50572  0.76411  1.0000
  Cl  Cl19      1.0  0.37887  0.13749  0.64273  1.0000
  Cl  Cl20      1.0  0.25839  0.49428  0.63724  1.0000
  Cl  Cl21      1.0  0.50349  0.86168  0.24045  1.0000
  Cl  Cl22      1.0  0.85665  0.62111  0.36311  1.0000
  Cl  Cl23      1.0  0.62114  0.26387  0.75862  1.0000
  Cl  Cl24      1.0  0.36145  0.85844  0.62125  1.0000
  O   O1        1.0  0.93900  0.47348  0.53446  1.0000
  O   O2        1.0  0.46554  0.52652  0.06100  1.0000
  O   O3        1.0  0.53448  0.06100  0.59546  1.0000
  O   O4        1.0  0.53446  0.59546  0.06098  1.0000
  O   O5        1.0  0.46554  0.93902  0.40454  1.0000
  O   O6        1.0  0.53448  0.47348  0.93902  1.0000
  O   O7        1.0  0.53446  0.93900  0.47348  1.0000
  O   O8        1.0  0.46552  0.40454  0.93900  1.0000
  O   O9        1.0  0.40454  0.46554  0.93902  1.0000
  O   O10       1.0  0.93902  0.53448  0.47348  1.0000
  O   O11       1.0  0.47348  0.53446  0.93900  1.0000
  O   O12       1.0  0.40454  0.93900  0.46552  1.0000
  O   O13       1.0  0.93900  0.46552  0.40454  1.0000
  O   O14       1.0  0.52652  0.46552  0.06098  1.0000
  O   O15       1.0  0.06100  0.46554  0.52652  1.0000
  O   O16       1.0  0.59546  0.53448  0.06100  1.0000
  O   O17       1.0  0.06098  0.53446  0.59546  1.0000
  O   O18       1.0  0.93902  0.40454  0.46554  1.0000
  O   O19       1.0  0.47348  0.93902  0.53448  1.0000
  O   O20       1.0  0.06100  0.59546  0.53448  1.0000
  O   O21       1.0  0.59546  0.06098  0.53446  1.0000
  O   O22       1.0  0.06098  0.52652  0.46552  1.0000
  O   O23       1.0  0.52652  0.06100  0.46554  1.0000
  O   O24       1.0  0.46552  0.06098  0.52652  1.0000
