data_image0
_chemical_formula_structural       Zn6H56C74O24
_chemical_formula_sum              "Zn6 H56 C74 O24"
_cell_length_a       18.6592
_cell_length_b       18.6677
_cell_length_c       18.7369
_cell_angle_alpha    109.566
_cell_angle_beta     109.29
_cell_angle_gamma    109.346

_symmetry_space_group_name_H-M    "P 1"
_symmetry_int_tables_number       1

loop_
  _symmetry_equiv_pos_as_xyz
  'x, y, z'

loop_
  _atom_site_type_symbol
  _atom_site_label
  _atom_site_symmetry_multiplicity
  _atom_site_fract_x
  _atom_site_fract_y
  _atom_site_fract_z
  _atom_site_occupancy
  Zn  Zn1       1.0  0.93087  0.00032  0.43129  1.0000
  Zn  Zn2       1.0  0.06913  0.99968  0.56871  1.0000
  Zn  Zn3       1.0  0.06907  0.56639  0.99732  1.0000
  Zn  Zn4       1.0  0.93083  0.42826  0.99724  1.0000
  Zn  Zn5       1.0  0.49988  0.43055  0.43045  1.0000
  Zn  Zn6       1.0  0.49994  0.56945  0.56937  1.0000
  H   H1        1.0  0.98740  0.25659  0.61675  1.0000
  H   H2        1.0  0.99546  0.76058  0.11917  1.0000
  H   H3        1.0  0.09409  0.28716  0.69189  1.0000
  H   H4        1.0  0.99415  0.87361  0.23228  1.0000
  H   H5        1.0  0.89913  0.76855  0.55681  1.0000
  H   H6        1.0  0.78580  0.65597  0.55729  1.0000
  H   H7        1.0  0.59861  0.72669  0.44160  1.0000
  H   H8        1.0  0.70994  0.83682  0.43715  1.0000
  H   H9        1.0  0.64110  0.52995  0.77043  1.0000
  H   H10       1.0  0.09937  0.36710  0.15391  1.0000
  H   H11       1.0  0.09843  0.39584  0.79564  1.0000
  H   H12       1.0  0.03110  0.25048  0.88854  1.0000
  H   H13       1.0  0.39734  0.62772  0.34585  1.0000
  H   H14       1.0  0.28691  0.62755  0.23054  1.0000
  H   H15       1.0  0.99061  0.36680  0.72266  1.0000
  H   H16       1.0  0.85465  0.25062  0.72148  1.0000
  H   H17       1.0  0.04234  0.14910  0.79228  1.0000
  H   H18       1.0  0.12394  0.23050  0.79155  1.0000
  H   H19       1.0  0.12313  0.33272  0.89760  1.0000
  H   H20       1.0  0.73808  0.08236  0.67058  1.0000
  H   H21       1.0  0.66497  0.95404  0.68164  1.0000
  H   H22       1.0  0.73198  0.86173  0.69634  1.0000
  H   H23       1.0  0.88099  0.20719  0.78868  1.0000
  H   H24       1.0  0.87259  0.89790  0.69792  1.0000
  H   H25       1.0  0.94451  0.02059  0.68238  1.0000
  H   H26       1.0  0.71417  0.63724  0.92497  1.0000
  H   H27       1.0  0.62954  0.52831  0.88832  1.0000
  H   H28       1.0  0.71350  0.59846  0.00084  1.0000
  H   H29       1.0  0.73916  0.48102  0.92122  1.0000
  H   H30       1.0  0.82606  0.59052  0.96842  1.0000
  H   H31       1.0  0.75604  0.36148  0.51110  1.0000
  H   H32       1.0  0.65674  0.34728  0.51338  1.0000
  H   H33       1.0  0.68782  0.39115  0.44930  1.0000
  H   H34       1.0  0.24832  0.10934  0.47231  1.0000
  H   H35       1.0  0.74050  0.52516  0.56831  1.0000
  H   H36       1.0  0.83273  0.51477  0.60392  1.0000
  H   H37       1.0  0.98326  0.59684  0.80052  1.0000
  H   H38       1.0  0.02404  0.52357  0.76883  1.0000
  H   H39       1.0  0.96736  0.54888  0.69196  1.0000
  H   H40       1.0  0.89710  0.42037  0.74922  1.0000
  H   H41       1.0  0.85478  0.40969  0.64645  1.0000
  H   H42       1.0  0.11854  0.37008  0.32157  1.0000
  H   H43       1.0  0.07032  0.23602  0.33290  1.0000
  H   H44       1.0  0.12550  0.13429  0.28957  1.0000
  H   H45       1.0  0.36121  0.22215  0.47104  1.0000
  H   H46       1.0  0.22822  0.16599  0.23315  1.0000
  H   H47       1.0  0.27492  0.29823  0.21875  1.0000
  H   H48       1.0  0.85796  0.26319  0.61121  1.0000
  H   H49       1.0  0.75681  0.22566  0.46672  1.0000
  H   H50       1.0  0.66614  0.07207  0.34653  1.0000
  H   H51       1.0  0.67897  0.95446  0.37299  1.0000
  H   H52       1.0  0.78055  0.98885  0.51668  1.0000
  H   H53       1.0  0.25161  0.39059  0.53015  1.0000
  H   H54       1.0  0.13709  0.27620  0.52823  1.0000
  H   H55       1.0  0.00557  0.73712  0.37835  1.0000
  H   H56       1.0  0.00350  0.62243  0.26359  1.0000
  C   C1        1.0  0.12009  0.12014  0.50002  1.0000
  C   C2        1.0  0.18606  0.18614  0.50013  1.0000
  C   C3        1.0  0.00327  0.74228  0.32181  1.0000
  C   C4        1.0  0.99587  0.11669  0.62043  1.0000
  C   C5        1.0  0.00165  0.67732  0.25684  1.0000
  C   C6        1.0  0.99961  0.68457  0.18443  1.0000
  C   C7        1.0  0.99755  0.75540  0.17565  1.0000
  C   C8        1.0  0.99640  0.81895  0.23929  1.0000
  C   C9        1.0  0.00003  0.81257  0.31254  1.0000
  C   C10       1.0  0.83373  0.75974  0.53137  1.0000
  C   C11       1.0  0.76981  0.69600  0.53164  1.0000
  C   C12       1.0  0.99594  0.30733  0.80653  1.0000
  C   C13       1.0  0.68597  0.68537  0.50004  1.0000
  C   C14       1.0  0.66431  0.73617  0.46667  1.0000
  C   C15       1.0  0.72749  0.79842  0.46431  1.0000
  C   C16       1.0  0.87949  0.87875  0.49916  1.0000
  C   C17       1.0  0.81264  0.81120  0.49796  1.0000
  C   C18       1.0  0.88008  0.49788  0.87763  1.0000
  C   C19       1.0  0.99770  0.37655  0.87445  1.0000
  C   C20       1.0  0.12033  0.49679  0.11728  1.0000
  C   C21       1.0  0.99979  0.61822  0.11806  1.0000
  C   C22       1.0  0.37845  0.49908  0.38059  1.0000
  C   C23       1.0  0.90085  0.22844  0.74616  1.0000
  C   C24       1.0  0.37969  0.37976  0.50005  1.0000
  C   C25       1.0  0.62273  0.50166  0.61915  1.0000
  C   C26       1.0  0.62028  0.61988  0.50028  1.0000
  C   C27       1.0  0.75414  0.51879  0.82744  1.0000
  C   C28       1.0  0.00006  0.87912  0.37911  1.0000
  C   C29       1.0  0.69182  0.51887  0.76206  1.0000
  C   C30       1.0  0.69249  0.50359  0.68429  1.0000
  C   C31       1.0  0.75696  0.48842  0.66889  1.0000
  C   C32       1.0  0.81771  0.48277  0.73218  1.0000
  C   C33       1.0  0.81503  0.49806  0.81053  1.0000
  C   C34       1.0  0.05526  0.27672  0.85075  1.0000
  C   C35       1.0  0.16452  0.42390  0.19593  1.0000
  C   C36       1.0  0.22707  0.42290  0.26041  1.0000
  C   C37       1.0  0.31116  0.49733  0.31444  1.0000
  C   C38       1.0  0.33229  0.57079  0.30402  1.0000
  C   C39       1.0  0.26999  0.57039  0.23844  1.0000
  C   C40       1.0  0.02667  0.26662  0.68202  1.0000
  C   C41       1.0  0.18616  0.49698  0.18452  1.0000
  C   C42       1.0  0.02968  0.34082  0.75255  1.0000
  C   C43       1.0  0.89331  0.15002  0.67185  1.0000
  C   C44       1.0  0.05614  0.20546  0.78114  1.0000
  C   C45       1.0  0.24918  0.17074  0.48477  1.0000
  C   C46       1.0  0.99116  0.18127  0.68713  1.0000
  C   C47       1.0  0.85163  0.06799  0.68102  1.0000
  C   C48       1.0  0.76969  0.04398  0.67801  1.0000
  C   C49       1.0  0.72728  0.97065  0.68379  1.0000
  C   C50       1.0  0.76487  0.91867  0.69200  1.0000
  C   C51       1.0  0.84421  0.93928  0.69309  1.0000
  C   C52       1.0  0.88630  0.01176  0.68584  1.0000
  C   C53       1.0  0.75764  0.54094  0.91539  1.0000
  C   C54       1.0  0.69983  0.57851  0.93278  1.0000
  C   C55       1.0  0.76388  0.48412  0.58864  1.0000
  C   C56       1.0  0.31261  0.23429  0.48379  1.0000
  C   C57       1.0  0.71297  0.39034  0.51149  1.0000
  C   C58       1.0  0.88301  0.45715  0.71585  1.0000
  C   C59       1.0  0.96913  0.53650  0.74621  1.0000
  C   C60       1.0  0.20172  0.34480  0.27112  1.0000
  C   C61       1.0  0.14307  0.32608  0.30242  1.0000
  C   C62       1.0  0.11546  0.25015  0.30865  1.0000
  C   C63       1.0  0.14647  0.19270  0.28409  1.0000
  C   C64       1.0  0.20458  0.21074  0.25255  1.0000
  C   C65       1.0  0.23157  0.28611  0.24528  1.0000
  C   C66       1.0  0.82843  0.12933  0.57964  1.0000
  C   C67       1.0  0.31369  0.31362  0.50063  1.0000
  C   C68       1.0  0.81983  0.19508  0.56192  1.0000
  C   C69       1.0  0.76186  0.17431  0.47873  1.0000
  C   C70       1.0  0.71084  0.08780  0.41087  1.0000
  C   C71       1.0  0.71798  0.02170  0.42584  1.0000
  C   C72       1.0  0.77588  0.04199  0.50873  1.0000
  C   C73       1.0  0.25126  0.32943  0.51774  1.0000
  C   C74       1.0  0.18630  0.26478  0.51612  1.0000
  O   O1        1.0  0.03986  0.09185  0.44854  1.0000
  O   O2        1.0  0.40824  0.55247  0.46082  1.0000
  O   O3        1.0  0.40827  0.35639  0.44791  1.0000
  O   O4        1.0  0.14338  0.09137  0.55144  1.0000
  O   O5        1.0  0.40831  0.46039  0.55193  1.0000
  O   O6        1.0  0.59158  0.44753  0.53900  1.0000
  O   O7        1.0  0.59162  0.55154  0.64303  1.0000
  O   O8        1.0  0.59151  0.53960  0.44789  1.0000
  O   O9        1.0  0.59154  0.64361  0.55191  1.0000
  O   O10       1.0  0.94824  0.09236  0.54065  1.0000
  O   O11       1.0  0.05176  0.09188  0.64355  1.0000
  O   O12       1.0  0.85658  0.44611  0.90612  1.0000
  O   O13       1.0  0.85662  0.90863  0.44856  1.0000
  O   O14       1.0  0.96014  0.90815  0.55146  1.0000
  O   O15       1.0  0.94824  0.90812  0.35645  1.0000
  O   O16       1.0  0.05176  0.90764  0.45935  1.0000
  O   O17       1.0  0.96009  0.54954  0.90618  1.0000
  O   O18       1.0  0.05172  0.45693  0.90522  1.0000
  O   O19       1.0  0.94820  0.35350  0.90516  1.0000
  O   O20       1.0  0.14334  0.54855  0.08845  1.0000
  O   O21       1.0  0.03982  0.44512  0.08839  1.0000
  O   O22       1.0  0.05171  0.64116  0.08941  1.0000
  O   O23       1.0  0.94820  0.53773  0.08935  1.0000
  O   O24       1.0  0.40821  0.44846  0.35680  1.0000
