data_image0
_chemical_formula_structural       Zn2H12C24S2N4O18
_chemical_formula_sum              "Zn2 H12 C24 S2 N4 O18"
_cell_length_a       9.8252
_cell_length_b       10.6429
_cell_length_c       10.7206
_cell_angle_alpha    89.7027
_cell_angle_beta     90
_cell_angle_gamma    90

_symmetry_space_group_name_H-M    "P 1"
_symmetry_int_tables_number       1

loop_
  _symmetry_equiv_pos_as_xyz
  'x, y, z'

loop_
  _atom_site_type_symbol
  _atom_site_label
  _atom_site_symmetry_multiplicity
  _atom_site_fract_x
  _atom_site_fract_y
  _atom_site_fract_z
  _atom_site_occupancy
  Zn  Zn1       1.0  0.65312  0.50000  0.50000  1.0000
  Zn  Zn2       1.0  0.34688  0.50000  0.50000  1.0000
  H   H1        1.0  0.28050  0.88768  0.48754  1.0000
  H   H2        1.0  0.28050  0.11232  0.51246  1.0000
  H   H3        1.0  0.27907  0.50026  0.88771  1.0000
  H   H4        1.0  0.27907  0.49973  0.11229  1.0000
  H   H5        1.0  0.72099  0.49952  0.11226  1.0000
  H   H6        1.0  0.72099  0.50049  0.88774  1.0000
  H   H7        1.0  0.12664  0.36699  0.35417  1.0000
  H   H8        1.0  0.12664  0.63301  0.64583  1.0000
  H   H9        1.0  0.87329  0.36653  0.35461  1.0000
  H   H10       1.0  0.87329  0.63347  0.64539  1.0000
  H   H11       1.0  0.83028  0.83795  0.08862  1.0000
  H   H12       1.0  0.83020  0.16200  0.91141  1.0000
  C   C1        1.0  0.49996  0.50039  0.74017  1.0000
  C   C2        1.0  0.49996  0.49961  0.25983  1.0000
  C   C3        1.0  0.50028  0.74010  0.48686  1.0000
  C   C4        1.0  0.50028  0.25990  0.51314  1.0000
  C   C5        1.0  0.74686  0.90065  0.41351  1.0000
  C   C6        1.0  0.74686  0.09935  0.58649  1.0000
  C   C7        1.0  0.87113  0.95439  0.45259  1.0000
  C   C8        1.0  0.87113  0.04561  0.54741  1.0000
  C   C9        1.0  0.62442  0.05782  0.53002  1.0000
  C   C10       1.0  0.62442  0.94218  0.46998  1.0000
  C   C11       1.0  0.50060  0.87452  0.47193  1.0000
  C   C12       1.0  0.50060  0.12548  0.52807  1.0000
  C   C13       1.0  0.37696  0.93668  0.48947  1.0000
  C   C14       1.0  0.37696  0.06332  0.51052  1.0000
  C   C15       1.0  0.37587  0.50016  0.93615  1.0000
  C   C16       1.0  0.37587  0.49983  0.06385  1.0000
  C   C17       1.0  0.50002  0.49964  0.12740  1.0000
  C   C18       1.0  0.50002  0.50036  0.87260  1.0000
  C   C19       1.0  0.62419  0.49975  0.06385  1.0000
  C   C20       1.0  0.62419  0.50025  0.93616  1.0000
  C   C21       1.0  0.07199  0.42620  0.41881  1.0000
  C   C22       1.0  0.07199  0.57380  0.58119  1.0000
  C   C23       1.0  0.92799  0.42592  0.41905  1.0000
  C   C24       1.0  0.92799  0.57408  0.58095  1.0000
  S   S1        1.0  0.74250  0.81383  0.27205  1.0000
  S   S2        1.0  0.74250  0.18616  0.72795  1.0000
  N   N1        1.0  0.85720  0.50000  0.50000  1.0000
  N   N2        1.0  0.14281  0.50000  0.50000  1.0000
  N   N3        1.0  0.99738  0.91959  0.39499  1.0000
  N   N4        1.0  0.99738  0.08041  0.60501  1.0000
  O   O1        1.0  0.61462  0.50001  0.68323  1.0000
  O   O2        1.0  0.61462  0.49999  0.31677  1.0000
  O   O3        1.0  0.38529  0.50000  0.68320  1.0000
  O   O4        1.0  0.38529  0.50000  0.31680  1.0000
  O   O5        1.0  0.61469  0.68323  0.49999  1.0000
  O   O6        1.0  0.61469  0.31677  0.50001  1.0000
  O   O7        1.0  0.38536  0.68323  0.49996  1.0000
  O   O8        1.0  0.38536  0.31677  0.50004  1.0000
  O   O9        1.0  0.80734  0.68757  0.29164  1.0000
  O   O10       1.0  0.59916  0.79698  0.22609  1.0000
  O   O11       1.0  0.83164  0.89276  0.16302  1.0000
  O   O12       1.0  0.80734  0.31243  0.70837  1.0000
  O   O13       1.0  0.59915  0.20302  0.77391  1.0000
  O   O14       1.0  0.83164  0.10724  0.83698  1.0000
  O   O15       1.0  0.03466  0.80249  0.39047  1.0000
  O   O16       1.0  0.07887  0.00611  0.35244  1.0000
  O   O17       1.0  0.03466  0.19751  0.60953  1.0000
  O   O18       1.0  0.07887  0.99389  0.64756  1.0000
