data_image0
_chemical_formula_structural       Zn2H41C54N9O14
_chemical_formula_sum              "Zn2 H41 C54 N9 O14"
_cell_length_a       14.9806
_cell_length_b       15.7583
_cell_length_c       23.4547
_cell_angle_alpha    90.036
_cell_angle_beta     89.9962
_cell_angle_gamma    89.9972

_symmetry_space_group_name_H-M    "P 1"
_symmetry_int_tables_number       1

loop_
  _symmetry_equiv_pos_as_xyz
  'x, y, z'

loop_
  _atom_site_type_symbol
  _atom_site_label
  _atom_site_symmetry_multiplicity
  _atom_site_fract_x
  _atom_site_fract_y
  _atom_site_fract_z
  _atom_site_occupancy
  Zn  Zn1       1.0  0.40087  0.50009  0.50008  1.0000
  Zn  Zn2       1.0  0.59913  0.50009  0.50008  1.0000
  H   H1        1.0  0.43258  0.29207  0.94637  1.0000
  H   H2        1.0  0.36245  0.07098  0.53003  1.0000
  H   H3        1.0  0.64631  0.92509  0.48666  1.0000
  H   H4        1.0  0.36446  0.92515  0.53613  1.0000
  H   H5        1.0  0.40701  0.07668  0.42554  1.0000
  H   H6        1.0  0.52128  0.07666  0.40548  1.0000
  H   H7        1.0  0.07901  0.36287  0.49193  1.0000
  H   H8        1.0  0.93119  0.36538  0.50428  1.0000
  H   H9        1.0  0.92927  0.57090  0.57769  1.0000
  H   H10       1.0  0.08199  0.55182  0.58487  1.0000
  H   H11       1.0  0.91896  0.45908  0.58645  1.0000
  H   H12       1.0  0.35547  0.49758  0.68093  1.0000
  H   H13       1.0  0.07061  0.44007  0.58061  1.0000
  H   H14       1.0  0.93161  0.56314  0.41535  1.0000
  H   H15       1.0  0.07979  0.57901  0.42074  1.0000
  H   H16       1.0  0.56746  0.70070  0.05230  1.0000
  H   H17       1.0  0.56758  0.70135  0.94895  1.0000
  H   H18       1.0  0.64374  0.49744  0.21482  1.0000
  H   H19       1.0  0.64458  0.49943  0.31923  1.0000
  H   H20       1.0  0.35546  0.49885  0.31920  1.0000
  H   H21       1.0  0.35638  0.49711  0.21479  1.0000
  H   H22       1.0  0.35638  0.49642  0.78534  1.0000
  H   H23       1.0  0.64455  0.50163  0.68091  1.0000
  H   H24       1.0  0.33436  0.94964  0.44487  1.0000
  H   H25       1.0  0.36950  0.93692  0.37817  1.0000
  H   H26       1.0  0.51561  0.93689  0.35252  1.0000
  H   H27       1.0  0.59917  0.94958  0.39839  1.0000
  H   H28       1.0  0.36105  0.25437  0.04397  1.0000
  H   H29       1.0  0.46875  0.22216  0.04390  1.0000
  H   H30       1.0  0.91657  0.71388  0.44150  1.0000
  H   H31       1.0  0.14183  0.69668  0.46626  1.0000
  H   H32       1.0  0.92271  0.32912  0.40777  1.0000
  H   H33       1.0  0.91344  0.43139  0.38617  1.0000
  H   H34       1.0  0.64371  0.50021  0.78531  1.0000
  H   H35       1.0  0.07477  0.34831  0.39430  1.0000
  H   H36       1.0  0.05730  0.45259  0.38145  1.0000
  H   H37       1.0  0.45360  0.92957  0.58589  1.0000
  H   H38       1.0  0.60950  0.92952  0.55853  1.0000
  H   H39       1.0  0.44624  0.07397  0.58474  1.0000
  H   H40       1.0  0.61488  0.07394  0.55515  1.0000
  H   H41       1.0  0.64317  0.07095  0.48078  1.0000
  C   C1        1.0  0.50000  0.33794  0.50007  1.0000
  C   C2        1.0  0.52371  0.56846  0.11940  1.0000
  C   C3        1.0  0.58108  0.49784  0.23786  1.0000
  C   C4        1.0  0.50000  0.50001  0.38911  1.0000
  C   C5        1.0  0.58119  0.49895  0.29702  1.0000
  C   C6        1.0  0.50002  0.49930  0.32695  1.0000
  C   C7        1.0  0.41887  0.49859  0.29701  1.0000
  C   C8        1.0  0.41902  0.49748  0.23784  1.0000
  C   C9        1.0  0.50006  0.49708  0.20837  1.0000
  C   C10       1.0  0.41902  0.49743  0.76230  1.0000
  C   C11       1.0  0.41887  0.49821  0.70313  1.0000
  C   C12       1.0  0.45142  0.34901  0.96934  1.0000
  C   C13       1.0  0.50000  0.49970  0.67318  1.0000
  C   C14       1.0  0.58116  0.50050  0.70311  1.0000
  C   C15       1.0  0.58106  0.49975  0.76228  1.0000
  C   C16       1.0  0.50000  0.66221  0.50008  1.0000
  C   C17       1.0  0.50005  0.49818  0.79177  1.0000
  C   C18       1.0  0.43074  0.04893  0.54146  1.0000
  C   C19       1.0  0.59360  0.04890  0.51288  1.0000
  C   C20       1.0  0.59294  0.95105  0.51456  1.0000
  C   C21       1.0  0.43266  0.95108  0.54269  1.0000
  C   C22       1.0  0.49994  0.75098  0.49926  1.0000
  C   C23       1.0  0.45097  0.34731  0.02892  1.0000
  C   C24       1.0  0.49946  0.08263  0.49763  1.0000
  C   C25       1.0  0.49927  0.91761  0.49717  1.0000
  C   C26       1.0  0.47298  0.95134  0.43606  1.0000
  C   C27       1.0  0.47357  0.05069  0.43743  1.0000
  C   C28       1.0  0.49971  0.82618  0.49833  1.0000
  C   C29       1.0  0.49979  0.17393  0.49855  1.0000
  C   C30       1.0  0.50000  0.50012  0.61102  1.0000
  C   C31       1.0  0.49996  0.24915  0.49934  1.0000
  C   C32       1.0  0.94729  0.41541  0.47227  1.0000
  C   C33       1.0  0.05289  0.41829  0.46752  1.0000
  C   C34       1.0  0.47531  0.42097  0.05997  1.0000
  C   C35       1.0  0.94822  0.50898  0.55858  1.0000
  C   C36       1.0  0.05197  0.50028  0.55888  1.0000
  C   C37       1.0  0.90990  0.50093  0.49700  1.0000
  C   C38       1.0  0.09018  0.50020  0.49708  1.0000
  C   C39       1.0  0.05339  0.58044  0.46501  1.0000
  C   C40       1.0  0.94788  0.57684  0.46058  1.0000
  C   C41       1.0  0.19084  0.49903  0.49815  1.0000
  C   C42       1.0  0.80916  0.49932  0.49812  1.0000
  C   C43       1.0  0.52384  0.56960  0.88098  1.0000
  C   C44       1.0  0.47630  0.42478  0.88024  1.0000
  C   C45       1.0  0.49983  0.49545  0.03010  1.0000
  C   C46       1.0  0.47563  0.42266  0.93980  1.0000
  C   C47       1.0  0.49996  0.49612  0.97013  1.0000
  C   C48       1.0  0.52442  0.57044  0.94051  1.0000
  C   C49       1.0  0.90331  0.66224  0.47090  1.0000
  C   C50       1.0  0.09061  0.66250  0.48957  1.0000
  C   C51       1.0  0.52429  0.56961  0.06001  1.0000
  C   C52       1.0  0.54850  0.64319  0.03008  1.0000
  C   C53       1.0  0.54858  0.64360  0.97084  1.0000
  C   C54       1.0  0.47633  0.42345  0.11993  1.0000
  N   N1        1.0  0.50008  0.49749  0.85241  1.0000
  N   N2        1.0  0.50007  0.49628  0.14772  1.0000
  N   N3        1.0  0.26885  0.49863  0.49886  1.0000
  N   N4        1.0  0.73115  0.49863  0.49886  1.0000
  N   N5        1.0  0.38347  0.91991  0.42034  1.0000
  N   N6        1.0  0.53733  0.91987  0.39333  1.0000
  N   N7        1.0  0.42555  0.27041  0.05719  1.0000
  N   N8        1.0  0.90110  0.38965  0.41970  1.0000
  N   N9        1.0  0.08763  0.40965  0.40916  1.0000
  O   O1        1.0  0.42574  0.37721  0.50006  1.0000
  O   O2        1.0  0.45396  0.35481  0.85022  1.0000
  O   O3        1.0  0.45449  0.35410  0.15061  1.0000
  O   O4        1.0  0.54601  0.63895  0.14889  1.0000
  O   O5        1.0  0.85350  0.67478  0.51124  1.0000
  O   O6        1.0  0.06560  0.69018  0.53551  1.0000
  O   O7        1.0  0.57426  0.37721  0.50006  1.0000
  O   O8        1.0  0.42575  0.50005  0.41622  1.0000
  O   O9        1.0  0.57425  0.50005  0.41622  1.0000
  O   O10       1.0  0.42580  0.62293  0.50006  1.0000
  O   O11       1.0  0.57420  0.62293  0.50006  1.0000
  O   O12       1.0  0.42579  0.50010  0.58390  1.0000
  O   O13       1.0  0.57421  0.50010  0.58390  1.0000
  O   O14       1.0  0.54622  0.64022  0.85172  1.0000
