data_image0
_chemical_formula_structural       Zn6H41C43N3O31
_chemical_formula_sum              "Zn6 H41 C43 N3 O31"
_cell_length_a       18.543
_cell_length_b       18.6754
_cell_length_c       19.0052
_cell_angle_alpha    109.484
_cell_angle_beta     109.123
_cell_angle_gamma    108.861

_symmetry_space_group_name_H-M    "P 1"
_symmetry_int_tables_number       1

loop_
  _symmetry_equiv_pos_as_xyz
  'x, y, z'

loop_
  _atom_site_type_symbol
  _atom_site_label
  _atom_site_symmetry_multiplicity
  _atom_site_fract_x
  _atom_site_fract_y
  _atom_site_fract_z
  _atom_site_occupancy
  Zn  Zn1       1.0  0.43259  0.50081  0.43183  1.0000
  Zn  Zn2       1.0  0.56741  0.49919  0.56817  1.0000
  Zn  Zn3       1.0  0.99421  0.92603  0.43191  1.0000
  Zn  Zn4       1.0  0.99410  0.06241  0.56822  1.0000
  Zn  Zn5       1.0  0.56900  0.06900  0.00000  1.0000
  Zn  Zn6       1.0  0.43100  0.93100  0.00000  1.0000
  H   H1        1.0  0.82478  0.89605  0.62444  1.0000
  H   H2        1.0  0.47060  0.72232  0.85851  1.0000
  H   H3        1.0  0.54015  0.83845  0.78733  1.0000
  H   H4        1.0  0.51878  0.63242  0.76936  1.0000
  H   H5        1.0  0.45879  0.71413  0.66106  1.0000
  H   H6        1.0  0.60760  0.86375  0.14368  1.0000
  H   H7        1.0  0.74699  0.85808  0.22603  1.0000
  H   H8        1.0  0.78479  0.04147  0.34189  1.0000
  H   H9        1.0  0.87242  0.72518  0.49738  1.0000
  H   H10       1.0  0.25852  0.12847  0.74391  1.0000
  H   H11       1.0  0.79429  0.69697  0.39578  1.0000
  H   H12       1.0  0.53066  0.27981  0.14108  1.0000
  H   H13       1.0  0.60010  0.67348  0.38081  1.0000
  H   H14       1.0  0.71823  0.79403  0.62334  1.0000
  H   H15       1.0  0.78032  0.73948  0.63729  1.0000
  H   H16       1.0  0.65663  0.58741  0.34365  1.0000
  H   H17       1.0  0.55427  0.75911  0.43264  1.0000
  H   H18       1.0  0.67325  0.88019  0.44728  1.0000
  H   H19       1.0  0.55772  0.27051  0.39281  1.0000
  H   H20       1.0  0.69332  0.29789  0.39590  1.0000
  H   H21       1.0  0.69297  0.40009  0.43611  1.0000
  H   H22       1.0  0.67213  0.34421  0.32735  1.0000
  H   H23       1.0  0.45021  0.16002  0.20422  1.0000
  H   H24       1.0  0.78146  0.12108  0.23012  1.0000
  H   H25       1.0  0.89255  0.09776  0.20778  1.0000
  H   H26       1.0  0.79369  0.03683  0.10583  1.0000
  H   H27       1.0  0.82694  0.98269  0.16317  1.0000
  H   H28       1.0  0.40656  0.14025  0.77390  1.0000
  H   H29       1.0  0.23513  0.96683  0.87581  1.0000
  H   H30       1.0  0.21098  0.89512  0.62557  1.0000
  H   H31       1.0  0.11532  0.78469  0.64069  1.0000
  H   H32       1.0  0.05137  0.81494  0.57428  1.0000
  H   H33       1.0  0.07981  0.85840  0.68618  1.0000
  H   H34       1.0  0.47158  0.36190  0.22698  1.0000
  H   H35       1.0  0.68791  0.71972  0.33166  1.0000
  H   H36       1.0  0.90880  0.79349  0.63627  1.0000
  H   H37       1.0  0.24746  0.10854  0.47355  1.0000
  H   H38       1.0  0.19482  0.24764  0.53650  1.0000
  H   H39       1.0  0.38434  0.24509  0.52061  1.0000
  H   H40       1.0  0.77373  0.63260  0.51264  1.0000
  H   H41       1.0  0.24486  0.29862  0.46143  1.0000
  C   C1        1.0  0.50441  0.38382  0.38212  1.0000
  C   C2        1.0  0.18793  0.18305  0.50885  1.0000
  C   C3        1.0  0.32179  0.24378  0.50326  1.0000
  C   C4        1.0  0.62010  0.62192  0.50210  1.0000
  C   C5        1.0  0.30969  0.30524  0.48833  1.0000
  C   C6        1.0  0.49076  0.73955  0.81623  1.0000
  C   C7        1.0  0.51064  0.81775  0.82279  1.0000
  C   C8        1.0  0.50122  0.67780  0.75458  1.0000
  C   C9        1.0  0.48593  0.67577  0.67996  1.0000
  C   C10       1.0  0.87222  0.99234  0.38229  1.0000
  C   C11       1.0  0.87748  0.87437  0.50328  1.0000
  C   C12       1.0  0.80921  0.80770  0.50283  1.0000
  C   C13       1.0  0.11214  0.99189  0.61787  1.0000
  C   C14       1.0  0.11649  0.11471  0.50196  1.0000
  C   C15       1.0  0.61871  0.99698  0.11670  1.0000
  C   C16       1.0  0.49666  0.61688  0.61800  1.0000
  C   C17       1.0  0.49572  0.11846  0.11513  1.0000
  C   C18       1.0  0.38188  0.00700  0.88732  1.0000
  C   C19       1.0  0.50241  0.88135  0.88296  1.0000
  C   C20       1.0  0.67220  0.92042  0.18267  1.0000
  C   C21       1.0  0.68875  0.99181  0.17404  1.0000
  C   C22       1.0  0.74153  0.91695  0.24414  1.0000
  C   C23       1.0  0.71948  0.79980  0.44938  1.0000
  C   C24       1.0  0.79694  0.98687  0.32140  1.0000
  C   C25       1.0  0.32913  0.06945  0.80030  1.0000
  C   C26       1.0  0.31468  0.02344  0.84045  1.0000
  C   C27       1.0  0.25372  0.06759  0.74020  1.0000
  C   C28       1.0  0.37900  0.37749  0.49730  1.0000
  C   C29       1.0  0.18238  0.99131  0.67895  1.0000
  C   C30       1.0  0.73846  0.65006  0.46701  1.0000
  C   C31       1.0  0.80734  0.71874  0.46276  1.0000
  C   C32       1.0  0.64638  0.72733  0.44790  1.0000
  C   C33       1.0  0.75264  0.76448  0.59579  1.0000
  C   C34       1.0  0.82630  0.83421  0.59665  1.0000
  C   C35       1.0  0.68752  0.68954  0.50250  1.0000
  C   C36       1.0  0.66171  0.33543  0.37886  1.0000
  C   C37       1.0  0.82453  0.04319  0.17011  1.0000
  C   C38       1.0  0.10290  0.83872  0.63963  1.0000
  C   C39       1.0  0.50655  0.26062  0.18037  1.0000
  C   C40       1.0  0.48328  0.18121  0.17131  1.0000
  C   C41       1.0  0.49766  0.32220  0.24414  1.0000
  C   C42       1.0  0.52064  0.32857  0.32181  1.0000
  C   C43       1.0  0.24875  0.17080  0.49172  1.0000
  N   N1        1.0  0.56941  0.28867  0.35031  1.0000
  N   N2        1.0  0.77625  0.06043  0.21394  1.0000
  N   N3        1.0  0.18291  0.91101  0.66289  1.0000
  O   O1        1.0  0.44953  0.41016  0.35849  1.0000
  O   O2        1.0  0.53775  0.94726  0.09043  1.0000
  O   O3        1.0  0.55165  0.14212  0.09046  1.0000
  O   O4        1.0  0.55049  0.40894  0.46059  1.0000
  O   O5        1.0  0.44832  0.03878  0.09046  1.0000
  O   O6        1.0  0.46225  0.05274  0.90957  1.0000
  O   O7        1.0  0.35891  0.94941  0.90957  1.0000
  O   O8        1.0  0.55168  0.96122  0.90954  1.0000
  O   O9        1.0  0.44835  0.85788  0.90954  1.0000
  O   O10       1.0  0.54104  0.59213  0.44895  1.0000
  O   O11       1.0  0.64200  0.59091  0.55105  1.0000
  O   O12       1.0  0.90469  0.04630  0.46061  1.0000
  O   O13       1.0  0.44951  0.59106  0.53941  1.0000
  O   O14       1.0  0.55047  0.58984  0.64151  1.0000
  O   O15       1.0  0.35800  0.40909  0.44895  1.0000
  O   O16       1.0  0.45896  0.40787  0.55105  1.0000
  O   O17       1.0  0.90478  0.94417  0.35854  1.0000
  O   O18       1.0  0.68293  0.57280  0.38759  1.0000
  O   O19       1.0  0.59869  0.76015  0.48021  1.0000
  O   O20       1.0  0.72224  0.88016  0.48920  1.0000
  O   O21       1.0  0.41116  0.11277  0.81056  1.0000
  O   O22       1.0  0.23448  0.99293  0.83820  1.0000
  O   O23       1.0  0.90268  0.85163  0.44903  1.0000
  O   O24       1.0  0.70395  0.78115  0.36553  1.0000
  O   O25       1.0  0.90956  0.84995  0.65055  1.0000
  O   O26       1.0  0.90259  0.95376  0.55110  1.0000
  O   O27       1.0  0.08362  0.94214  0.53952  1.0000
  O   O28       1.0  0.08353  0.04427  0.64159  1.0000
  O   O29       1.0  0.08572  0.03468  0.44903  1.0000
  O   O30       1.0  0.08563  0.13680  0.55110  1.0000
  O   O31       1.0  0.64109  0.05059  0.09043  1.0000
