data_image0
_chemical_formula_structural       Zn2H24C44N6O12
_chemical_formula_sum              "Zn2 H24 C44 N6 O12"
_cell_length_a       16.7175
_cell_length_b       17.5488
_cell_length_c       19.2364
_cell_angle_alpha    90.1289
_cell_angle_beta     89.9948
_cell_angle_gamma    89.9987

_symmetry_space_group_name_H-M    "P 1"
_symmetry_int_tables_number       1

loop_
  _symmetry_equiv_pos_as_xyz
  'x, y, z'

loop_
  _atom_site_type_symbol
  _atom_site_label
  _atom_site_symmetry_multiplicity
  _atom_site_fract_x
  _atom_site_fract_y
  _atom_site_fract_z
  _atom_site_occupancy
  Zn  Zn1       1.0  0.41114  0.50000  0.50000  1.0000
  Zn  Zn2       1.0  0.58886  0.50000  0.50000  1.0000
  H   H1        1.0  0.37104  0.49882  0.28109  1.0000
  H   H2        1.0  0.62896  0.12198  0.47726  1.0000
  H   H3        1.0  0.37105  0.12199  0.47725  1.0000
  H   H4        1.0  0.62896  0.87795  0.47784  1.0000
  H   H5        1.0  0.37039  0.73957  0.49229  1.0000
  H   H6        1.0  0.62961  0.26044  0.49169  1.0000
  H   H7        1.0  0.37039  0.26045  0.49169  1.0000
  H   H8        1.0  0.62961  0.73956  0.49230  1.0000
  H   H9        1.0  0.13660  0.41360  0.42025  1.0000
  H   H10       1.0  0.86345  0.58636  0.57971  1.0000
  H   H11       1.0  0.13653  0.58637  0.57971  1.0000
  H   H12       1.0  0.62897  0.50136  0.71891  1.0000
  H   H13       1.0  0.86342  0.41360  0.42025  1.0000
  H   H14       1.0  0.28484  0.41520  0.42175  1.0000
  H   H15       1.0  0.71520  0.58479  0.57826  1.0000
  H   H16       1.0  0.28478  0.58479  0.57826  1.0000
  H   H17       1.0  0.71518  0.41520  0.42174  1.0000
  H   H18       1.0  0.37100  0.49962  0.71890  1.0000
  H   H19       1.0  0.62900  0.50022  0.28111  1.0000
  H   H20       1.0  0.35834  0.48108  0.09993  1.0000
  H   H21       1.0  0.64164  0.51911  0.90008  1.0000
  H   H22       1.0  0.35819  0.48244  0.90004  1.0000
  H   H23       1.0  0.64183  0.51749  0.09998  1.0000
  H   H24       1.0  0.37105  0.87796  0.47783  1.0000
  C   C1        1.0  0.50000  0.35306  0.49920  1.0000
  C   C2        1.0  0.83234  0.54827  0.54455  1.0000
  C   C3        1.0  0.16765  0.54827  0.54455  1.0000
  C   C4        1.0  0.83233  0.45171  0.45542  1.0000
  C   C5        1.0  0.25198  0.45258  0.45624  1.0000
  C   C6        1.0  0.74805  0.54741  0.54376  1.0000
  C   C7        1.0  0.25194  0.54741  0.54375  1.0000
  C   C8        1.0  0.74804  0.45258  0.45624  1.0000
  C   C9        1.0  0.12443  0.49998  0.49998  1.0000
  C   C10       1.0  0.87557  0.49998  0.49998  1.0000
  C   C11       1.0  0.03659  0.49998  0.49997  1.0000
  C   C12       1.0  0.50000  0.64694  0.49936  1.0000
  C   C13       1.0  0.96341  0.49998  0.49997  1.0000
  C   C14       1.0  0.50000  0.49988  0.36521  1.0000
  C   C15       1.0  0.50000  0.50012  0.63480  1.0000
  C   C16       1.0  0.42751  0.49935  0.25342  1.0000
  C   C17       1.0  0.57249  0.50076  0.74659  1.0000
  C   C18       1.0  0.42746  0.50025  0.74658  1.0000
  C   C19       1.0  0.57254  0.49967  0.25343  1.0000
  C   C20       1.0  0.42640  0.49812  0.18136  1.0000
  C   C21       1.0  0.57360  0.50200  0.81864  1.0000
  C   C22       1.0  0.42632  0.49920  0.81864  1.0000
  C   C23       1.0  0.50000  0.72947  0.49356  1.0000
  C   C24       1.0  0.57369  0.50074  0.18137  1.0000
  C   C25       1.0  0.50005  0.49946  0.14481  1.0000
  C   C26       1.0  0.49996  0.50058  0.85520  1.0000
  C   C27       1.0  0.50002  0.49964  0.28960  1.0000
  C   C28       1.0  0.49998  0.50037  0.71040  1.0000
  C   C29       1.0  0.49998  0.50030  0.93031  1.0000
  C   C30       1.0  0.50002  0.49974  0.06969  1.0000
  C   C31       1.0  0.42733  0.84744  0.48049  1.0000
  C   C32       1.0  0.57268  0.15252  0.47990  1.0000
  C   C33       1.0  0.42733  0.15252  0.47989  1.0000
  C   C34       1.0  0.50000  0.27054  0.49311  1.0000
  C   C35       1.0  0.57267  0.84743  0.48050  1.0000
  C   C36       1.0  0.42721  0.76905  0.48922  1.0000
  C   C37       1.0  0.57280  0.23095  0.48863  1.0000
  C   C38       1.0  0.42721  0.23095  0.48863  1.0000
  C   C39       1.0  0.57279  0.76904  0.48922  1.0000
  C   C40       1.0  0.50000  0.88603  0.47604  1.0000
  C   C41       1.0  0.50000  0.11389  0.47551  1.0000
  C   C42       1.0  0.50000  0.96613  0.47191  1.0000
  C   C43       1.0  0.50000  0.03376  0.47173  1.0000
  C   C44       1.0  0.16769  0.45171  0.45543  1.0000
  N   N1        1.0  0.53189  0.44039  0.03415  1.0000
  N   N2        1.0  0.46811  0.55965  0.96585  1.0000
  N   N3        1.0  0.53187  0.44067  0.96520  1.0000
  N   N4        1.0  0.46813  0.55937  0.03481  1.0000
  N   N5        1.0  0.29277  0.50000  0.50000  1.0000
  N   N6        1.0  0.70723  0.50000  0.50000  1.0000
  O   O1        1.0  0.43343  0.38911  0.50000  1.0000
  O   O2        1.0  0.64769  0.50552  0.85047  1.0000
  O   O3        1.0  0.35220  0.49576  0.85043  1.0000
  O   O4        1.0  0.64781  0.50409  0.14958  1.0000
  O   O5        1.0  0.56657  0.61089  0.50000  1.0000
  O   O6        1.0  0.43343  0.61089  0.50000  1.0000
  O   O7        1.0  0.56657  0.38911  0.50000  1.0000
  O   O8        1.0  0.43344  0.49999  0.39814  1.0000
  O   O9        1.0  0.56656  0.50001  0.60186  1.0000
  O   O10       1.0  0.43344  0.50001  0.60186  1.0000
  O   O11       1.0  0.56656  0.49999  0.39814  1.0000
  O   O12       1.0  0.35230  0.49470  0.14953  1.0000
