data_image0
_chemical_formula_structural       Zn6H24C70Br4Cl8O24
_chemical_formula_sum              "Zn6 H24 C70 Br4 Cl8 O24"
_cell_length_a       18.5726
_cell_length_b       18.6258
_cell_length_c       18.8008
_cell_angle_alpha    109.37
_cell_angle_beta     109.198
_cell_angle_gamma    109.374

_symmetry_space_group_name_H-M    "P 1"
_symmetry_int_tables_number       1

loop_
  _symmetry_equiv_pos_as_xyz
  'x, y, z'

loop_
  _atom_site_type_symbol
  _atom_site_label
  _atom_site_symmetry_multiplicity
  _atom_site_fract_x
  _atom_site_fract_y
  _atom_site_fract_z
  _atom_site_occupancy
  Zn  Zn1       1.0  0.06961  0.00051  0.56905  1.0000
  Zn  Zn2       1.0  0.93039  0.99949  0.43095  1.0000
  Zn  Zn3       1.0  0.50382  0.57282  0.56903  1.0000
  Zn  Zn4       1.0  0.50388  0.43470  0.43094  1.0000
  Zn  Zn5       1.0  0.93038  0.43041  0.99998  1.0000
  Zn  Zn6       1.0  0.06961  0.56960  0.00001  1.0000
  H   H1        1.0  0.61374  0.68015  0.36754  1.0000
  H   H2        1.0  0.29861  0.79219  0.37296  1.0000
  H   H3        1.0  0.15754  0.67693  0.24620  1.0000
  H   H4        1.0  0.86786  0.63829  0.12164  1.0000
  H   H5        1.0  0.20644  0.23873  0.66667  1.0000
  H   H6        1.0  0.46891  0.44940  0.80199  1.0000
  H   H7        1.0  0.46408  0.43137  0.66647  1.0000
  H   H8        1.0  0.99724  0.26092  0.62611  1.0000
  H   H9        1.0  0.77289  0.68744  0.37724  1.0000
  H   H10       1.0  0.96752  0.03459  0.70602  1.0000
  H   H11       1.0  0.98075  0.02722  0.83604  1.0000
  H   H12       1.0  0.02821  0.28869  0.96061  1.0000
  H   H13       1.0  0.00399  0.37630  0.74169  1.0000
  H   H14       1.0  0.26332  0.46651  0.42917  1.0000
  H   H15       1.0  0.13983  0.47044  0.44470  1.0000
  H   H16       1.0  0.06105  0.52076  0.23461  1.0000
  H   H17       1.0  0.26895  0.51665  0.13379  1.0000
  H   H18       1.0  0.75467  0.64948  0.66831  1.0000
  H   H19       1.0  0.88517  0.78883  0.77944  1.0000
  H   H20       1.0  0.72006  0.37405  0.76666  1.0000
  H   H21       1.0  0.73472  0.81777  0.62678  1.0000
  H   H22       1.0  0.71064  0.86174  0.49210  1.0000
  H   H23       1.0  0.87146  0.75579  0.23078  1.0000
  H   H24       1.0  0.31548  0.93311  0.46379  1.0000
  C   C1        1.0  0.00601  0.88519  0.38045  1.0000
  C   C2        1.0  0.74343  0.78905  0.57032  1.0000
  C   C3        1.0  0.72888  0.81169  0.49648  1.0000
  C   C4        1.0  0.81341  0.81292  0.50163  1.0000
  C   C5        1.0  0.17794  0.89235  0.39556  1.0000
  C   C6        1.0  0.25075  0.87997  0.41214  1.0000
  C   C7        1.0  0.24190  0.80119  0.35990  1.0000
  C   C8        1.0  0.16125  0.73611  0.28753  1.0000
  C   C9        1.0  0.08672  0.74707  0.26958  1.0000
  C   C10       1.0  0.09240  0.82216  0.32859  1.0000
  C   C11       1.0  0.01240  0.82315  0.31526  1.0000
  C   C12       1.0  0.87954  0.87970  0.50064  1.0000
  C   C13       1.0  0.93259  0.75613  0.24118  1.0000
  C   C14       1.0  0.92980  0.68791  0.18016  1.0000
  C   C15       1.0  0.00641  0.68450  0.19325  1.0000
  C   C16       1.0  0.26180  0.27815  0.66348  1.0000
  C   C17       1.0  0.33693  0.34505  0.74172  1.0000
  C   C18       1.0  0.40959  0.39874  0.74147  1.0000
  C   C19       1.0  0.40567  0.38843  0.66318  1.0000
  C   C20       1.0  0.32831  0.32350  0.58311  1.0000
  C   C21       1.0  0.25827  0.26386  0.58318  1.0000
  C   C22       1.0  0.18665  0.19173  0.50295  1.0000
  C   C23       1.0  0.99703  0.11743  0.61973  1.0000
  C   C24       1.0  0.18019  0.18310  0.42347  1.0000
  C   C25       1.0  0.24429  0.24807  0.42376  1.0000
  C   C26       1.0  0.31885  0.31651  0.50297  1.0000
  C   C27       1.0  0.98211  0.09210  0.76058  1.0000
  C   C28       1.0  0.98852  0.08683  0.83447  1.0000
  C   C29       1.0  0.00588  0.15835  0.90629  1.0000
  C   C30       1.0  0.01342  0.23414  0.90304  1.0000
  C   C31       1.0  0.00367  0.23942  0.82731  1.0000
  C   C32       1.0  0.99304  0.16968  0.75737  1.0000
  C   C33       1.0  0.99286  0.17950  0.68587  1.0000
  C   C34       1.0  0.12062  0.12286  0.50154  1.0000
  C   C35       1.0  0.99699  0.25366  0.68093  1.0000
  C   C36       1.0  0.00279  0.31988  0.74730  1.0000
  C   C37       1.0  0.00548  0.31296  0.81964  1.0000
  C   C38       1.0  0.38170  0.50215  0.38030  1.0000
  C   C39       1.0  0.62506  0.62448  0.50044  1.0000
  C   C40       1.0  0.62393  0.50326  0.61930  1.0000
  C   C41       1.0  0.38408  0.38286  0.50122  1.0000
  C   C42       1.0  0.87912  0.50482  0.88510  1.0000
  C   C43       1.0  0.00251  0.61942  0.12272  1.0000
  C   C44       1.0  0.12066  0.50357  0.12283  1.0000
  C   C45       1.0  0.76308  0.71568  0.43301  1.0000
  C   C46       1.0  0.00261  0.37989  0.88248  1.0000
  C   C47       1.0  0.22154  0.47967  0.38586  1.0000
  C   C48       1.0  0.15023  0.48079  0.39471  1.0000
  C   C49       1.0  0.09347  0.49649  0.34034  1.0000
  C   C50       1.0  0.10573  0.50726  0.27448  1.0000
  C   C51       1.0  0.17562  0.50265  0.26219  1.0000
  C   C52       1.0  0.23733  0.49439  0.32186  1.0000
  C   C53       1.0  0.31274  0.50054  0.31525  1.0000
  C   C54       1.0  0.32440  0.51000  0.24817  1.0000
  C   C55       1.0  0.26079  0.51206  0.18693  1.0000
  C   C56       1.0  0.67728  0.71328  0.42776  1.0000
  C   C57       1.0  0.18676  0.50745  0.19279  1.0000
  C   C58       1.0  0.79473  0.65431  0.72834  1.0000
  C   C59       1.0  0.86966  0.73410  0.79113  1.0000
  C   C60       1.0  0.92032  0.74567  0.87139  1.0000
  C   C61       1.0  0.89807  0.67512  0.88757  1.0000
  C   C62       1.0  0.82949  0.58964  0.81933  1.0000
  C   C63       1.0  0.77212  0.58239  0.74304  1.0000
  C   C64       1.0  0.69181  0.50411  0.68422  1.0000
  C   C65       1.0  0.67229  0.43001  0.69411  1.0000
  C   C66       1.0  0.73373  0.43340  0.76258  1.0000
  C   C67       1.0  0.69289  0.69166  0.50147  1.0000
  C   C68       1.0  0.81262  0.51145  0.82438  1.0000
  C   C69       1.0  0.77742  0.69344  0.50689  1.0000
  C   C70       1.0  0.82833  0.79090  0.57476  1.0000
  Br  Br1       1.0  0.08693  0.08068  0.31307  1.0000
  Br  Br2       1.0  0.42719  0.52344  0.23779  1.0000
  Br  Br3       1.0  0.81146  0.60748  0.51501  1.0000
  Br  Br4       1.0  0.93858  0.70538  0.00621  1.0000
  Cl  Cl1       1.0  0.34026  0.36058  0.84030  1.0000
  Cl  Cl2       1.0  0.22845  0.24482  0.32406  1.0000
  Cl  Cl3       1.0  0.01739  0.15286  0.00051  1.0000
  Cl  Cl4       1.0  0.00606  0.50188  0.35407  1.0000
  Cl  Cl5       1.0  0.57113  0.33173  0.62203  1.0000
  Cl  Cl6       1.0  0.00811  0.85146  0.95230  1.0000
  Cl  Cl7       1.0  0.92961  0.84372  0.67232  1.0000
  Cl  Cl8       1.0  0.20336  0.00157  0.44679  1.0000
  O   O1        1.0  0.05214  0.90878  0.46009  1.0000
  O   O2        1.0  0.41154  0.45134  0.35666  1.0000
  O   O3        1.0  0.59615  0.64779  0.55170  1.0000
  O   O4        1.0  0.59620  0.54436  0.44829  1.0000
  O   O5        1.0  0.59616  0.55618  0.64331  1.0000
  O   O6        1.0  0.59621  0.45275  0.53990  1.0000
  O   O7        1.0  0.41150  0.46316  0.55168  1.0000
  O   O8        1.0  0.41155  0.35973  0.44827  1.0000
  O   O9        1.0  0.85553  0.44721  0.90838  1.0000
  O   O10       1.0  0.95980  0.55145  0.90841  1.0000
  O   O11       1.0  0.94786  0.53949  0.09160  1.0000
  O   O12       1.0  0.94788  0.90800  0.35667  1.0000
  O   O13       1.0  0.05211  0.64372  0.09162  1.0000
  O   O14       1.0  0.04018  0.44855  0.09157  1.0000
  O   O15       1.0  0.14445  0.55279  0.09160  1.0000
  O   O16       1.0  0.94787  0.35627  0.90836  1.0000
  O   O17       1.0  0.05213  0.46051  0.90839  1.0000
  O   O18       1.0  0.95980  0.90807  0.55170  1.0000
  O   O19       1.0  0.85555  0.90730  0.44828  1.0000
  O   O20       1.0  0.05212  0.09200  0.64333  1.0000
  O   O21       1.0  0.94786  0.09122  0.53991  1.0000
  O   O22       1.0  0.14445  0.09270  0.55172  1.0000
  O   O23       1.0  0.04020  0.09193  0.44830  1.0000
  O   O24       1.0  0.41149  0.55477  0.46007  1.0000
