data_image0
_chemical_formula_structural       Zn2H16C52N6Cl16O24
_chemical_formula_sum              "Zn2 H16 C52 N6 Cl16 O24"
_cell_length_a       18.4673
_cell_length_b       18.8248
_cell_length_c       19.1765
_cell_angle_alpha    90.3564
_cell_angle_beta     90.1187
_cell_angle_gamma    90.8585

_symmetry_space_group_name_H-M    "P 1"
_symmetry_int_tables_number       1

loop_
  _symmetry_equiv_pos_as_xyz
  'x, y, z'

loop_
  _atom_site_type_symbol
  _atom_site_label
  _atom_site_symmetry_multiplicity
  _atom_site_fract_x
  _atom_site_fract_y
  _atom_site_fract_z
  _atom_site_occupancy
  Zn  Zn1       1.0  0.58121  0.50000  0.50000  1.0000
  Zn  Zn2       1.0  0.41879  0.50000  0.50000  1.0000
  H   H1        1.0  0.57301  0.60389  0.32445  1.0000
  H   H2        1.0  0.43269  0.38436  0.65971  1.0000
  H   H3        1.0  0.58440  0.59625  0.67739  1.0000
  H   H4        1.0  0.39135  0.35914  0.27323  1.0000
  H   H5        1.0  0.71475  0.37172  0.60390  1.0000
  H   H6        1.0  0.28268  0.38700  0.38199  1.0000
  H   H7        1.0  0.71797  0.62881  0.39680  1.0000
  H   H8        1.0  0.28595  0.61230  0.61829  1.0000
  H   H9        1.0  0.88373  0.38463  0.55117  1.0000
  H   H10       1.0  0.18920  0.34660  0.43593  1.0000
  H   H11       1.0  0.88734  0.61451  0.44773  1.0000
  H   H12       1.0  0.19310  0.65248  0.56457  1.0000
  H   H13       1.0  0.95249  0.45462  0.34242  1.0000
  H   H14       1.0  0.04580  0.47507  0.66097  1.0000
  H   H15       1.0  0.95450  0.54446  0.65703  1.0000
  H   H16       1.0  0.04623  0.52357  0.33859  1.0000
  C   C1        1.0  0.50047  0.63517  0.50172  1.0000
  C   C2        1.0  0.49930  0.36416  0.49978  1.0000
  C   C3        1.0  0.50423  0.14185  0.53769  1.0000
  C   C4        1.0  0.51674  0.85209  0.56260  1.0000
  C   C5        1.0  0.49760  0.28578  0.50326  1.0000
  C   C6        1.0  0.50207  0.71023  0.52071  1.0000
  C   C7        1.0  0.58101  0.04069  0.58475  1.0000
  C   C8        1.0  0.45281  0.96175  0.59893  1.0000
  C   C9        1.0  0.58341  0.96632  0.58429  1.0000
  C   C10       1.0  0.45332  0.03561  0.60383  1.0000
  C   C11       1.0  0.51784  0.92729  0.58279  1.0000
  C   C12       1.0  0.51327  0.07353  0.57705  1.0000
  C   C13       1.0  0.72462  0.45021  0.53800  1.0000
  C   C14       1.0  0.27384  0.44959  0.46214  1.0000
  C   C15       1.0  0.72593  0.54988  0.46213  1.0000
  C   C16       1.0  0.27514  0.55022  0.53778  1.0000
  C   C17       1.0  0.80126  0.44673  0.53613  1.0000
  C   C18       1.0  0.19682  0.44531  0.46551  1.0000
  C   C19       1.0  0.80274  0.55297  0.46347  1.0000
  C   C20       1.0  0.19822  0.55395  0.53438  1.0000
  C   C21       1.0  0.84145  0.49974  0.49967  1.0000
  C   C22       1.0  0.15873  0.49951  0.49991  1.0000
  C   C23       1.0  0.96133  0.49249  0.43654  1.0000
  C   C24       1.0  0.03865  0.50109  0.56332  1.0000
  C   C25       1.0  0.96174  0.50659  0.56290  1.0000
  C   C26       1.0  0.03844  0.49767  0.43625  1.0000
  C   C27       1.0  0.07714  0.49935  0.49982  1.0000
  C   C28       1.0  0.92308  0.49965  0.49969  1.0000
  C   C29       1.0  0.49992  0.49960  0.36549  1.0000
  C   C30       1.0  0.50022  0.49867  0.63452  1.0000
  C   C31       1.0  0.54559  0.53851  0.24933  1.0000
  C   C32       1.0  0.45244  0.44256  0.74190  1.0000
  C   C33       1.0  0.54932  0.53352  0.75157  1.0000
  C   C34       1.0  0.45421  0.44264  0.25819  1.0000
  C   C35       1.0  0.54566  0.53024  0.17727  1.0000
  C   C36       1.0  0.44920  0.43901  0.81429  1.0000
  C   C37       1.0  0.54745  0.52659  0.82373  1.0000
  C   C38       1.0  0.45242  0.43699  0.18501  1.0000
  C   C39       1.0  0.49801  0.48117  0.14526  1.0000
  C   C40       1.0  0.49640  0.48100  0.85486  1.0000
  C   C41       1.0  0.49942  0.49461  0.28981  1.0000
  C   C42       1.0  0.50066  0.49200  0.71010  1.0000
  C   C43       1.0  0.49187  0.47880  0.93002  1.0000
  C   C44       1.0  0.49359  0.47911  0.06993  1.0000
  C   C45       1.0  0.43402  0.24823  0.52376  1.0000
  C   C46       1.0  0.52207  0.76181  0.47162  1.0000
  C   C47       1.0  0.48873  0.72976  0.59056  1.0000
  C   C48       1.0  0.55866  0.24596  0.48309  1.0000
  C   C49       1.0  0.43650  0.17489  0.53247  1.0000
  C   C50       1.0  0.52747  0.83321  0.49213  1.0000
  C   C51       1.0  0.49968  0.80002  0.61216  1.0000
  C   C52       1.0  0.56055  0.17307  0.49791  1.0000
  N   N1        1.0  0.47451  0.53818  0.03492  1.0000
  N   N2        1.0  0.51005  0.41931  0.96493  1.0000
  N   N3        1.0  0.47377  0.53807  0.96581  1.0000
  N   N4        1.0  0.51086  0.41945  0.03418  1.0000
  N   N5        1.0  0.68944  0.50000  0.50000  1.0000
  N   N6        1.0  0.31056  0.50000  0.50000  1.0000
  Cl  Cl1       1.0  0.60603  0.58318  0.12745  1.0000
  Cl  Cl2       1.0  0.38530  0.38095  0.85343  1.0000
  Cl  Cl3       1.0  0.60990  0.57673  0.87484  1.0000
  Cl  Cl4       1.0  0.39051  0.37815  0.14251  1.0000
  Cl  Cl5       1.0  0.34980  0.28898  0.53986  1.0000
  Cl  Cl6       1.0  0.53758  0.73750  0.38392  1.0000
  Cl  Cl7       1.0  0.45649  0.66718  0.65159  1.0000
  Cl  Cl8       1.0  0.63095  0.28451  0.43511  1.0000
  Cl  Cl9       1.0  0.35756  0.12506  0.50989  1.0000
  Cl  Cl10      1.0  0.54604  0.89916  0.42901  1.0000
  Cl  Cl11      1.0  0.49292  0.82266  0.70166  1.0000
  Cl  Cl12      1.0  0.62198  0.11954  0.45090  1.0000
  Cl  Cl13      1.0  0.65952  0.09109  0.60652  1.0000
  Cl  Cl14      1.0  0.36999  0.91465  0.60848  1.0000
  Cl  Cl15      1.0  0.66729  0.92258  0.58300  1.0000
  Cl  Cl16      1.0  0.39015  0.07730  0.65931  1.0000
  O   O1        1.0  0.56084  0.60182  0.49998  1.0000
  O   O2        1.0  0.43916  0.39818  0.50002  1.0000
  O   O3        1.0  0.56084  0.39818  0.50002  1.0000
  O   O4        1.0  0.43916  0.60182  0.49998  1.0000
  O   O5        1.0  0.56083  0.50001  0.39813  1.0000
  O   O6        1.0  0.43917  0.49999  0.60187  1.0000
  O   O7        1.0  0.56083  0.49999  0.60187  1.0000
  O   O8        1.0  0.43917  0.50001  0.39813  1.0000
  O   O9        1.0  0.59065  0.59042  0.27772  1.0000
  O   O10       1.0  0.40838  0.39641  0.70410  1.0000
  O   O11       1.0  0.59913  0.58154  0.72452  1.0000
  O   O12       1.0  0.41365  0.39825  0.30073  1.0000
  O   O13       1.0  0.68318  0.40324  0.57662  1.0000
  O   O14       1.0  0.31348  0.40423  0.42109  1.0000
  O   O15       1.0  0.68567  0.59755  0.42449  1.0000
  O   O16       1.0  0.31592  0.59603  0.57870  1.0000
  O   O17       1.0  0.83429  0.39095  0.56968  1.0000
  O   O18       1.0  0.15785  0.38880  0.43741  1.0000
  O   O19       1.0  0.83735  0.60866  0.42981  1.0000
  O   O20       1.0  0.16066  0.61016  0.56253  1.0000
  O   O21       1.0  0.92187  0.48031  0.37626  1.0000
  O   O22       1.0  0.07752  0.49598  0.62468  1.0000
  O   O23       1.0  0.92288  0.51893  0.62314  1.0000
  O   O24       1.0  0.07733  0.50260  0.37496  1.0000
