data_image0
_chemical_formula_structural       Zn2H32C42N4O14
_chemical_formula_sum              "Zn2 H32 C42 N4 O14"
_cell_length_a       10.2115
_cell_length_b       10.7779
_cell_length_c       23.4228
_cell_angle_alpha    89.9251
_cell_angle_beta     80.6162
_cell_angle_gamma    85.3761

_symmetry_space_group_name_H-M    "P 1"
_symmetry_int_tables_number       1

loop_
  _symmetry_equiv_pos_as_xyz
  'x, y, z'

loop_
  _atom_site_type_symbol
  _atom_site_label
  _atom_site_symmetry_multiplicity
  _atom_site_fract_x
  _atom_site_fract_y
  _atom_site_fract_z
  _atom_site_occupancy
  Zn  Zn1       1.0  0.64694  0.52192  0.48992  1.0000
  Zn  Zn2       1.0  0.35306  0.47808  0.51008  1.0000
  H   H1        1.0  0.47261  0.81586  0.94728  1.0000
  H   H2        1.0  0.51700  0.18985  0.05354  1.0000
  H   H3        1.0  0.47582  0.82000  0.05074  1.0000
  H   H4        1.0  0.51416  0.18569  0.95007  1.0000
  H   H5        1.0  0.70612  0.43946  0.20059  1.0000
  H   H6        1.0  0.28625  0.55730  0.79859  1.0000
  H   H7        1.0  0.70540  0.43437  0.30520  1.0000
  H   H8        1.0  0.29003  0.55874  0.69377  1.0000
  H   H9        1.0  0.29476  0.58211  0.22919  1.0000
  H   H10       1.0  0.70214  0.43084  0.77281  1.0000
  H   H11       1.0  0.39384  0.10629  0.46979  1.0000
  H   H12       1.0  0.61778  0.89377  0.46638  1.0000
  H   H13       1.0  0.68653  0.09508  0.48960  1.0000
  H   H14       1.0  0.31261  0.90535  0.50534  1.0000
  H   H15       1.0  0.87547  0.45488  0.54764  1.0000
  H   H16       1.0  0.11066  0.60155  0.47823  1.0000
  H   H17       1.0  0.80976  0.59123  0.35784  1.0000
  H   H18       1.0  0.71653  0.71525  0.40499  1.0000
  H   H19       1.0  0.86542  0.74345  0.35760  1.0000
  H   H20       1.0  0.92189  0.72314  0.45287  1.0000
  H   H21       1.0  0.99490  0.59122  0.40703  1.0000
  H   H22       1.0  0.24425  0.19507  0.54575  1.0000
  H   H23       1.0  0.27973  0.29874  0.60215  1.0000
  H   H24       1.0  0.14872  0.19862  0.61631  1.0000
  H   H25       1.0  0.04682  0.40362  0.60442  1.0000
  H   H26       1.0  0.03203  0.30137  0.54455  1.0000
  H   H27       1.0  0.35262  0.74433  0.37163  1.0000
  H   H28       1.0  0.17440  0.75272  0.38158  1.0000
  H   H29       1.0  0.26471  0.77228  0.31022  1.0000
  H   H30       1.0  0.83477  0.25840  0.62285  1.0000
  H   H31       1.0  0.65713  0.26023  0.63097  1.0000
  H   H32       1.0  0.74198  0.23960  0.69371  1.0000
  C   C1        1.0  0.44473  0.73270  0.50165  1.0000
  C   C2        1.0  0.55553  0.26751  0.49432  1.0000
  C   C3        1.0  0.61626  0.47058  0.22995  1.0000
  C   C4        1.0  0.37799  0.52942  0.76976  1.0000
  C   C5        1.0  0.61565  0.46856  0.28922  1.0000
  C   C6        1.0  0.38053  0.52958  0.71037  1.0000
  C   C7        1.0  0.49908  0.50724  0.32745  1.0000
  C   C8        1.0  0.49947  0.49485  0.67279  1.0000
  C   C9        1.0  0.38315  0.55179  0.30576  1.0000
  C   C10       1.0  0.61585  0.45572  0.69538  1.0000
  C   C11       1.0  0.38422  0.55126  0.24621  1.0000
  C   C12       1.0  0.61264  0.45793  0.75507  1.0000
  C   C13       1.0  0.50039  0.51094  0.20854  1.0000
  C   C14       1.0  0.49412  0.49444  0.79199  1.0000
  C   C15       1.0  0.41470  0.86462  0.49493  1.0000
  C   C16       1.0  0.58748  0.13570  0.48558  1.0000
  C   C17       1.0  0.51520  0.93355  0.47601  1.0000
  C   C18       1.0  0.49240  0.06615  0.47468  1.0000
  C   C19       1.0  0.07081  0.52518  0.50369  1.0000
  C   C20       1.0  0.92082  0.50876  0.51186  1.0000
  C   C21       1.0  0.49985  0.50170  0.38951  1.0000
  C   C22       1.0  0.50001  0.49847  0.61054  1.0000
  C   C23       1.0  0.49966  0.38670  0.88157  1.0000
  C   C24       1.0  0.49178  0.61895  0.11915  1.0000
  C   C25       1.0  0.48498  0.60938  0.88058  1.0000
  C   C26       1.0  0.50582  0.39628  0.12014  1.0000
  C   C27       1.0  0.48566  0.61420  0.94012  1.0000
  C   C28       1.0  0.50430  0.39152  0.06067  1.0000
  C   C29       1.0  0.49402  0.50165  0.97048  1.0000
  C   C30       1.0  0.49586  0.50406  0.03033  1.0000
  C   C31       1.0  0.50084  0.38670  0.94111  1.0000
  C   C32       1.0  0.48938  0.61900  0.05968  1.0000
  C   C33       1.0  0.47903  0.72824  0.96976  1.0000
  C   C34       1.0  0.51061  0.27748  0.03106  1.0000
  C   C35       1.0  0.48092  0.73062  0.02905  1.0000
  C   C36       1.0  0.50893  0.27509  0.97176  1.0000
  C   C37       1.0  0.90075  0.63607  0.43181  1.0000
  C   C38       1.0  0.81579  0.67249  0.38595  1.0000
  C   C39       1.0  0.10154  0.35559  0.56448  1.0000
  C   C40       1.0  0.20180  0.25761  0.58266  1.0000
  C   C41       1.0  0.26623  0.72083  0.35138  1.0000
  C   C42       1.0  0.74068  0.28856  0.65190  1.0000
  N   N1        1.0  0.49219  0.49689  0.85285  1.0000
  N   N2        1.0  0.49979  0.50873  0.14783  1.0000
  N   N3        1.0  0.15729  0.44888  0.52352  1.0000
  N   N4        1.0  0.84271  0.55112  0.47648  1.0000
  O   O1        1.0  0.56894  0.69247  0.49527  1.0000
  O   O2        1.0  0.43106  0.30753  0.50473  1.0000
  O   O3        1.0  0.34888  0.65965  0.51036  1.0000
  O   O4        1.0  0.65112  0.34035  0.48964  1.0000
  O   O5        1.0  0.61005  0.51645  0.40861  1.0000
  O   O6        1.0  0.38995  0.48355  0.59139  1.0000
  O   O7        1.0  0.38998  0.48363  0.42370  1.0000
  O   O8        1.0  0.61002  0.51637  0.57630  1.0000
  O   O9        1.0  0.50552  0.27784  0.85246  1.0000
  O   O10       1.0  0.48689  0.72779  0.14817  1.0000
  O   O11       1.0  0.47841  0.71585  0.85040  1.0000
  O   O12       1.0  0.51223  0.28974  0.15029  1.0000
  O   O13       1.0  0.26713  0.59140  0.34241  1.0000
  O   O14       1.0  0.73387  0.41880  0.65953  1.0000
