# generated using pymatgen
data_Zr3H32(C27O25)2
_symmetry_space_group_name_H-M   'P 1'
_cell_length_a   50.72300000
_cell_length_b   50.72300000
_cell_length_c   15.50270000
_cell_angle_alpha   90.00000000
_cell_angle_beta   90.00000000
_cell_angle_gamma   120.00000000
_symmetry_Int_Tables_number   1
_chemical_formula_structural   Zr3H32(C27O25)2
_chemical_formula_sum   'Zr18 H192 C324 O300'
_cell_volume   34542.02851317
_cell_formula_units_Z   6
loop_
 _symmetry_equiv_pos_site_id
 _symmetry_equiv_pos_as_xyz
  1  'x, y, z'
loop_
 _atom_site_type_symbol
 _atom_site_label
 _atom_site_symmetry_multiplicity
 _atom_site_fract_x
 _atom_site_fract_y
 _atom_site_fract_z
 _atom_site_occupancy
  Zr  Zr0  1  0.46539000  0.46539000  0.11538000  1
  Zr  Zr1  1  0.53461000  0.00000000  0.11538000  1
  Zr  Zr2  1  0.00000000  0.53461000  0.11538000  1
  Zr  Zr3  1  0.53461000  0.53461000  0.11538000  1
  Zr  Zr4  1  0.46539000  0.00000000  0.11538000  1
  Zr  Zr5  1  0.00000000  0.46539000  0.11538000  1
  Zr  Zr6  1  0.46539000  0.46539000  0.88462000  1
  Zr  Zr7  1  0.00000000  0.53461000  0.88462000  1
  Zr  Zr8  1  0.53461000  0.00000000  0.88462000  1
  Zr  Zr9  1  0.53461000  0.53461000  0.88462000  1
  Zr  Zr10  1  0.00000000  0.46539000  0.88462000  1
  Zr  Zr11  1  0.46539000  0.00000000  0.88462000  1
  Zr  Zr12  1  0.47258000  0.52742000  0.00000000  1
  Zr  Zr13  1  0.47258000  0.94516000  0.00000000  1
  Zr  Zr14  1  0.05484000  0.52742000  0.00000000  1
  Zr  Zr15  1  0.52742000  0.47258000  0.00000000  1
  Zr  Zr16  1  0.52742000  0.05484000  0.00000000  1
  Zr  Zr17  1  0.94516000  0.47258000  0.00000000  1
  O  O30  1  0.48488000  0.51512000  0.12322000  1
  O  O31  1  0.48488000  0.96976000  0.12322000  1
  O  O32  1  0.03024000  0.51512000  0.12322000  1
  O  O33  1  0.51512000  0.48488000  0.12322000  1
  O  O34  1  0.51512000  0.03024000  0.12322000  1
  O  O35  1  0.96976000  0.48488000  0.12322000  1
  O  O36  1  0.51512000  0.48488000  0.87678000  1
  O  O37  1  0.96976000  0.48488000  0.87678000  1
  O  O38  1  0.51512000  0.03024000  0.87678000  1
  O  O39  1  0.48488000  0.51512000  0.87678000  1
  O  O40  1  0.03024000  0.51512000  0.87678000  1
  O  O41  1  0.48488000  0.96976000  0.87678000  1
  O  O42  1  0.44892000  0.47787000  0.00000000  1
  O  O43  1  0.52213000  0.97105000  0.00000000  1
  O  O44  1  0.02895000  0.55108000  0.00000000  1
  O  O45  1  0.55108000  0.52213000  0.00000000  1
  O  O46  1  0.47787000  0.02895000  0.00000000  1
  O  O47  1  0.97105000  0.44892000  0.00000000  1
  O  O48  1  0.47787000  0.44892000  0.00000000  1
  O  O49  1  0.97105000  0.52213000  0.00000000  1
  O  O50  1  0.55108000  0.02895000  0.00000000  1
  O  O51  1  0.52213000  0.55108000  0.00000000  1
  O  O52  1  0.02895000  0.47787000  0.00000000  1
  O  O53  1  0.44892000  0.97105000  0.00000000  1
  O  O66  1  0.43553000  0.51047000  0.09308000  1
  O  O67  1  0.48953000  0.92506000  0.09308000  1
  O  O68  1  0.07494000  0.56447000  0.09308000  1
  O  O69  1  0.56447000  0.48953000  0.09308000  1
  O  O70  1  0.51047000  0.07494000  0.09308000  1
  O  O71  1  0.92506000  0.43553000  0.09308000  1
  O  O72  1  0.51047000  0.43553000  0.90692000  1
  O  O73  1  0.92506000  0.48953000  0.90692000  1
  O  O74  1  0.56447000  0.07494000  0.90692000  1
  O  O75  1  0.48953000  0.56447000  0.90692000  1
  O  O76  1  0.07494000  0.51047000  0.90692000  1
  O  O77  1  0.43553000  0.92506000  0.90692000  1
  O  O78  1  0.56447000  0.48953000  0.90692000  1
  O  O79  1  0.51047000  0.07494000  0.90692000  1
  O  O80  1  0.92506000  0.43553000  0.90692000  1
  O  O81  1  0.43553000  0.51047000  0.90692000  1
  O  O82  1  0.48953000  0.92506000  0.90692000  1
  O  O83  1  0.07494000  0.56447000  0.90692000  1
  O  O84  1  0.48953000  0.56447000  0.09308000  1
  O  O85  1  0.07494000  0.51047000  0.09308000  1
  O  O86  1  0.43553000  0.92506000  0.09308000  1
  O  O87  1  0.51047000  0.43553000  0.09308000  1
  O  O88  1  0.92506000  0.48953000  0.09308000  1
  O  O89  1  0.56447000  0.07494000  0.09308000  1
  O  O90  1  0.42780000  0.47000000  0.16605000  1
  O  O91  1  0.53000000  0.95780000  0.16605000  1
  O  O92  1  0.04220000  0.57220000  0.16605000  1
  O  O93  1  0.57220000  0.53000000  0.16605000  1
  O  O94  1  0.47000000  0.04220000  0.16605000  1
  O  O95  1  0.95780000  0.42780000  0.16605000  1
  O  O96  1  0.47000000  0.42780000  0.83395000  1
  O  O97  1  0.95780000  0.53000000  0.83395000  1
  O  O98  1  0.57220000  0.04220000  0.83395000  1
  O  O99  1  0.53000000  0.57220000  0.83395000  1
  O  O100  1  0.04220000  0.47000000  0.83395000  1
  O  O101  1  0.42780000  0.95780000  0.83395000  1
  O  O102  1  0.57220000  0.53000000  0.83395000  1
  O  O103  1  0.47000000  0.04220000  0.83395000  1
  O  O104  1  0.95780000  0.42780000  0.83395000  1
  O  O105  1  0.42780000  0.47000000  0.83395000  1
  O  O106  1  0.53000000  0.95780000  0.83395000  1
  O  O107  1  0.04220000  0.57220000  0.83395000  1
  O  O108  1  0.53000000  0.57220000  0.16605000  1
  O  O109  1  0.04220000  0.47000000  0.16605000  1
  O  O110  1  0.42780000  0.95780000  0.16605000  1
  O  O111  1  0.47000000  0.42780000  0.16605000  1
  O  O112  1  0.95780000  0.53000000  0.16605000  1
  O  O113  1  0.57220000  0.04220000  0.16605000  1
  C  C114  1  0.41986000  0.48970000  0.14833000  1
  C  C115  1  0.51030000  0.93016000  0.14833000  1
  C  C116  1  0.06984000  0.58014000  0.14833000  1
  C  C117  1  0.58014000  0.51030000  0.14833000  1
  C  C118  1  0.48970000  0.06984000  0.14833000  1
  C  C119  1  0.93016000  0.41986000  0.14833000  1
  C  C120  1  0.48970000  0.41986000  0.85167000  1
  C  C121  1  0.93016000  0.51030000  0.85167000  1
  C  C122  1  0.58014000  0.06984000  0.85167000  1
  C  C123  1  0.51030000  0.58014000  0.85167000  1
  C  C124  1  0.06984000  0.48970000  0.85167000  1
  C  C125  1  0.41986000  0.93016000  0.85167000  1
  C  C126  1  0.58014000  0.51030000  0.85167000  1
  C  C127  1  0.48970000  0.06984000  0.85167000  1
  C  C128  1  0.93016000  0.41986000  0.85167000  1
  C  C129  1  0.41986000  0.48970000  0.85167000  1
  C  C130  1  0.51030000  0.93016000  0.85167000  1
  C  C131  1  0.06984000  0.58014000  0.85167000  1
  C  C132  1  0.51030000  0.58014000  0.14833000  1
  C  C133  1  0.06984000  0.48970000  0.14833000  1
  C  C134  1  0.41986000  0.93016000  0.14833000  1
  C  C135  1  0.48970000  0.41986000  0.14833000  1
  C  C136  1  0.93016000  0.51030000  0.14833000  1
  C  C137  1  0.58014000  0.06984000  0.14833000  1
  C  C138  1  0.39208000  0.48787000  0.19334000  1
  C  C139  1  0.51213000  0.90421000  0.19334000  1
  C  C140  1  0.09579000  0.60792000  0.19334000  1
  C  C141  1  0.60792000  0.51213000  0.19334000  1
  C  C142  1  0.48787000  0.09579000  0.19334000  1
  C  C143  1  0.90421000  0.39208000  0.19334000  1
  C  C144  1  0.48787000  0.39208000  0.80666000  1
  C  C145  1  0.90421000  0.51213000  0.80666000  1
  C  C146  1  0.60792000  0.09579000  0.80666000  1
  C  C147  1  0.51213000  0.60792000  0.80666000  1
  C  C148  1  0.09579000  0.48787000  0.80666000  1
  C  C149  1  0.39208000  0.90421000  0.80666000  1
  C  C150  1  0.60792000  0.51213000  0.80666000  1
  C  C151  1  0.48787000  0.09579000  0.80666000  1
  C  C152  1  0.90421000  0.39208000  0.80666000  1
  C  C153  1  0.39208000  0.48787000  0.80666000  1
  C  C154  1  0.51213000  0.90421000  0.80666000  1
  C  C155  1  0.09579000  0.60792000  0.80666000  1
  C  C156  1  0.51213000  0.60792000  0.19334000  1
  C  C157  1  0.09579000  0.48787000  0.19334000  1
  C  C158  1  0.39208000  0.90421000  0.19334000  1
  C  C159  1  0.48787000  0.39208000  0.19334000  1
  C  C160  1  0.90421000  0.51213000  0.19334000  1
  C  C161  1  0.60792000  0.09579000  0.19334000  1
  C  C162  1  0.36727000  0.45968000  0.21417000  1
  C  C163  1  0.54032000  0.90759000  0.21417000  1
  C  C164  1  0.09241000  0.63273000  0.21417000  1
  C  C165  1  0.63273000  0.54032000  0.21417000  1
  C  C166  1  0.45968000  0.09241000  0.21417000  1
  C  C167  1  0.90759000  0.36727000  0.21417000  1
  C  C168  1  0.45968000  0.36727000  0.78583000  1
  C  C169  1  0.90759000  0.54032000  0.78583000  1
  C  C170  1  0.63273000  0.09241000  0.78583000  1
  C  C171  1  0.54032000  0.63273000  0.78583000  1
  C  C172  1  0.09241000  0.45968000  0.78583000  1
  C  C173  1  0.36727000  0.90759000  0.78583000  1
  C  C174  1  0.63273000  0.54032000  0.78583000  1
  C  C175  1  0.45968000  0.09241000  0.78583000  1
  C  C176  1  0.90759000  0.36727000  0.78583000  1
  C  C177  1  0.36727000  0.45968000  0.78583000  1
  C  C178  1  0.54032000  0.90759000  0.78583000  1
  C  C179  1  0.09241000  0.63273000  0.78583000  1
  C  C180  1  0.54032000  0.63273000  0.21417000  1
  C  C181  1  0.09241000  0.45968000  0.21417000  1
  C  C182  1  0.36727000  0.90759000  0.21417000  1
  C  C183  1  0.45968000  0.36727000  0.21417000  1
  C  C184  1  0.90759000  0.54032000  0.21417000  1
  C  C185  1  0.63273000  0.09241000  0.21417000  1
  C  C186  1  0.34208000  0.45802000  0.25498000  1
  C  C187  1  0.54198000  0.88406000  0.25498000  1
  C  C188  1  0.11594000  0.65792000  0.25498000  1
  C  C189  1  0.65792000  0.54198000  0.25498000  1
  C  C190  1  0.45802000  0.11594000  0.25498000  1
  C  C191  1  0.88406000  0.34208000  0.25498000  1
  C  C192  1  0.45802000  0.34208000  0.74502000  1
  C  C193  1  0.88406000  0.54198000  0.74502000  1
  C  C194  1  0.65792000  0.11594000  0.74502000  1
  C  C195  1  0.54198000  0.65792000  0.74502000  1
  C  C196  1  0.11594000  0.45802000  0.74502000  1
  C  C197  1  0.34208000  0.88406000  0.74502000  1
  C  C198  1  0.65792000  0.54198000  0.74502000  1
  C  C199  1  0.45802000  0.11594000  0.74502000  1
  C  C200  1  0.88406000  0.34208000  0.74502000  1
  C  C201  1  0.34208000  0.45802000  0.74502000  1
  C  C202  1  0.54198000  0.88406000  0.74502000  1
  C  C203  1  0.11594000  0.65792000  0.74502000  1
  C  C204  1  0.54198000  0.65792000  0.25498000  1
  C  C205  1  0.11594000  0.45802000  0.25498000  1
  C  C206  1  0.34208000  0.88406000  0.25498000  1
  C  C207  1  0.45802000  0.34208000  0.25498000  1
  C  C208  1  0.88406000  0.54198000  0.25498000  1
  C  C209  1  0.65792000  0.11594000  0.25498000  1
  C  C210  1  0.34108000  0.48417000  0.27572000  1
  C  C211  1  0.51583000  0.85691000  0.27572000  1
  C  C212  1  0.14309000  0.65892000  0.27572000  1
  C  C213  1  0.65892000  0.51583000  0.27572000  1
  C  C214  1  0.48417000  0.14309000  0.27572000  1
  C  C215  1  0.85691000  0.34108000  0.27572000  1
  C  C216  1  0.48417000  0.34108000  0.72428000  1
  C  C217  1  0.85691000  0.51583000  0.72428000  1
  C  C218  1  0.65892000  0.14309000  0.72428000  1
  C  C219  1  0.51583000  0.65892000  0.72428000  1
  C  C220  1  0.14309000  0.48417000  0.72428000  1
  C  C221  1  0.34108000  0.85691000  0.72428000  1
  C  C222  1  0.65892000  0.51583000  0.72428000  1
  C  C223  1  0.48417000  0.14309000  0.72428000  1
  C  C224  1  0.85691000  0.34108000  0.72428000  1
  C  C225  1  0.34108000  0.48417000  0.72428000  1
  C  C226  1  0.51583000  0.85691000  0.72428000  1
  C  C227  1  0.14309000  0.65892000  0.72428000  1
  C  C228  1  0.51583000  0.65892000  0.27572000  1
  C  C229  1  0.14309000  0.48417000  0.27572000  1
  C  C230  1  0.34108000  0.85691000  0.27572000  1
  C  C231  1  0.48417000  0.34108000  0.27572000  1
  C  C232  1  0.85691000  0.51583000  0.27572000  1
  C  C233  1  0.65892000  0.14309000  0.27572000  1
  C  C234  1  0.36651000  0.51273000  0.25413000  1
  C  C235  1  0.48727000  0.85378000  0.25413000  1
  C  C236  1  0.14622000  0.63349000  0.25413000  1
  C  C237  1  0.63349000  0.48727000  0.25413000  1
  C  C238  1  0.51273000  0.14622000  0.25413000  1
  C  C239  1  0.85378000  0.36651000  0.25413000  1
  C  C240  1  0.51273000  0.36651000  0.74587000  1
  C  C241  1  0.85378000  0.48727000  0.74587000  1
  C  C242  1  0.63349000  0.14622000  0.74587000  1
  C  C243  1  0.48727000  0.63349000  0.74587000  1
  C  C244  1  0.14622000  0.51273000  0.74587000  1
  C  C245  1  0.36651000  0.85378000  0.74587000  1
  C  C246  1  0.63349000  0.48727000  0.74587000  1
  C  C247  1  0.51273000  0.14622000  0.74587000  1
  C  C248  1  0.85378000  0.36651000  0.74587000  1
  C  C249  1  0.36651000  0.51273000  0.74587000  1
  C  C250  1  0.48727000  0.85378000  0.74587000  1
  C  C251  1  0.14622000  0.63349000  0.74587000  1
  C  C252  1  0.48727000  0.63349000  0.25413000  1
  C  C253  1  0.14622000  0.51273000  0.25413000  1
  C  C254  1  0.36651000  0.85378000  0.25413000  1
  C  C255  1  0.51273000  0.36651000  0.25413000  1
  C  C256  1  0.85378000  0.48727000  0.25413000  1
  C  C257  1  0.63349000  0.14622000  0.25413000  1
  C  C258  1  0.39170000  0.51439000  0.21332000  1
  C  C259  1  0.48561000  0.87731000  0.21332000  1
  C  C260  1  0.12269000  0.60830000  0.21332000  1
  C  C261  1  0.60830000  0.48561000  0.21332000  1
  C  C262  1  0.51439000  0.12269000  0.21332000  1
  C  C263  1  0.87731000  0.39170000  0.21332000  1
  C  C264  1  0.51439000  0.39170000  0.78668000  1
  C  C265  1  0.87731000  0.48561000  0.78668000  1
  C  C266  1  0.60830000  0.12269000  0.78668000  1
  C  C267  1  0.48561000  0.60830000  0.78668000  1
  C  C268  1  0.12269000  0.51439000  0.78668000  1
  C  C269  1  0.39170000  0.87731000  0.78668000  1
  C  C270  1  0.60830000  0.48561000  0.78668000  1
  C  C271  1  0.51439000  0.12269000  0.78668000  1
  C  C272  1  0.87731000  0.39170000  0.78668000  1
  C  C273  1  0.39170000  0.51439000  0.78668000  1
  C  C274  1  0.48561000  0.87731000  0.78668000  1
  C  C275  1  0.12269000  0.60830000  0.78668000  1
  C  C276  1  0.48561000  0.60830000  0.21332000  1
  C  C277  1  0.12269000  0.51439000  0.21332000  1
  C  C278  1  0.39170000  0.87731000  0.21332000  1
  C  C279  1  0.51439000  0.39170000  0.21332000  1
  C  C280  1  0.87731000  0.48561000  0.21332000  1
  C  C281  1  0.60830000  0.12269000  0.21332000  1
  C  C282  1  0.31375000  0.48165000  0.31947000  1
  C  C283  1  0.51835000  0.83210000  0.31947000  1
  C  C284  1  0.16790000  0.68625000  0.31947000  1
  C  C285  1  0.68625000  0.51835000  0.31947000  1
  C  C286  1  0.48165000  0.16790000  0.31947000  1
  C  C287  1  0.83210000  0.31375000  0.31947000  1
  C  C288  1  0.48165000  0.31375000  0.68053000  1
  C  C289  1  0.83210000  0.51835000  0.68053000  1
  C  C290  1  0.68625000  0.16790000  0.68053000  1
  C  C291  1  0.51835000  0.68625000  0.68053000  1
  C  C292  1  0.16790000  0.48165000  0.68053000  1
  C  C293  1  0.31375000  0.83210000  0.68053000  1
  C  C294  1  0.68625000  0.51835000  0.68053000  1
  C  C295  1  0.48165000  0.16790000  0.68053000  1
  C  C296  1  0.83210000  0.31375000  0.68053000  1
  C  C297  1  0.31375000  0.48165000  0.68053000  1
  C  C298  1  0.51835000  0.83210000  0.68053000  1
  C  C299  1  0.16790000  0.68625000  0.68053000  1
  C  C300  1  0.51835000  0.68625000  0.31947000  1
  C  C301  1  0.16790000  0.48165000  0.31947000  1
  C  C302  1  0.31375000  0.83210000  0.31947000  1
  C  C303  1  0.48165000  0.31375000  0.31947000  1
  C  C304  1  0.83210000  0.51835000  0.31947000  1
  C  C305  1  0.68625000  0.16790000  0.31947000  1
  C  C306  1  0.29372000  0.45505000  0.36274000  1
  C  C307  1  0.54495000  0.83867000  0.36274000  1
  C  C308  1  0.16133000  0.70628000  0.36274000  1
  C  C309  1  0.70628000  0.54495000  0.36274000  1
  C  C310  1  0.45505000  0.16133000  0.36274000  1
  C  C311  1  0.83867000  0.29372000  0.36274000  1
  C  C312  1  0.45505000  0.29372000  0.63726000  1
  C  C313  1  0.83867000  0.54495000  0.63726000  1
  C  C314  1  0.70628000  0.16133000  0.63726000  1
  C  C315  1  0.54495000  0.70628000  0.63726000  1
  C  C316  1  0.16133000  0.45505000  0.63726000  1
  C  C317  1  0.29372000  0.83867000  0.63726000  1
  C  C318  1  0.70628000  0.54495000  0.63726000  1
  C  C319  1  0.45505000  0.16133000  0.63726000  1
  C  C320  1  0.83867000  0.29372000  0.63726000  1
  C  C321  1  0.29372000  0.45505000  0.63726000  1
  C  C322  1  0.54495000  0.83867000  0.63726000  1
  C  C323  1  0.16133000  0.70628000  0.63726000  1
  C  C324  1  0.54495000  0.70628000  0.36274000  1
  C  C325  1  0.16133000  0.45505000  0.36274000  1
  C  C326  1  0.29372000  0.83867000  0.36274000  1
  C  C327  1  0.45505000  0.29372000  0.36274000  1
  C  C328  1  0.83867000  0.54495000  0.36274000  1
  C  C329  1  0.70628000  0.16133000  0.36274000  1
  C  C330  1  0.26823000  0.45271000  0.40355000  1
  C  C331  1  0.54729000  0.81552000  0.40355000  1
  C  C332  1  0.18448000  0.73177000  0.40355000  1
  C  C333  1  0.73177000  0.54729000  0.40355000  1
  C  C334  1  0.45271000  0.18448000  0.40355000  1
  C  C335  1  0.81552000  0.26823000  0.40355000  1
  C  C336  1  0.45271000  0.26823000  0.59645000  1
  C  C337  1  0.81552000  0.54729000  0.59645000  1
  C  C338  1  0.73177000  0.18448000  0.59645000  1
  C  C339  1  0.54729000  0.73177000  0.59645000  1
  C  C340  1  0.18448000  0.45271000  0.59645000  1
  C  C341  1  0.26823000  0.81552000  0.59645000  1
  C  C342  1  0.73177000  0.54729000  0.59645000  1
  C  C343  1  0.45271000  0.18448000  0.59645000  1
  C  C344  1  0.81552000  0.26823000  0.59645000  1
  C  C345  1  0.26823000  0.45271000  0.59645000  1
  C  C346  1  0.54729000  0.81552000  0.59645000  1
  C  C347  1  0.18448000  0.73177000  0.59645000  1
  C  C348  1  0.54729000  0.73177000  0.40355000  1
  C  C349  1  0.18448000  0.45271000  0.40355000  1
  C  C350  1  0.26823000  0.81552000  0.40355000  1
  C  C351  1  0.45271000  0.26823000  0.40355000  1
  C  C352  1  0.81552000  0.54729000  0.40355000  1
  C  C353  1  0.73177000  0.18448000  0.40355000  1
  C  C354  1  0.26274000  0.47694000  0.40116000  1
  C  C355  1  0.52306000  0.78580000  0.40116000  1
  C  C356  1  0.21420000  0.73726000  0.40116000  1
  C  C357  1  0.73726000  0.52306000  0.40116000  1
  C  C358  1  0.47694000  0.21420000  0.40116000  1
  C  C359  1  0.78580000  0.26274000  0.40116000  1
  C  C360  1  0.47694000  0.26274000  0.59884000  1
  C  C361  1  0.78580000  0.52306000  0.59884000  1
  C  C362  1  0.73726000  0.21420000  0.59884000  1
  C  C363  1  0.52306000  0.73726000  0.59884000  1
  C  C364  1  0.21420000  0.47694000  0.59884000  1
  C  C365  1  0.26274000  0.78580000  0.59884000  1
  C  C366  1  0.73726000  0.52306000  0.59884000  1
  C  C367  1  0.47694000  0.21420000  0.59884000  1
  C  C368  1  0.78580000  0.26274000  0.59884000  1
  C  C369  1  0.26274000  0.47694000  0.59884000  1
  C  C370  1  0.52306000  0.78580000  0.59884000  1
  C  C371  1  0.21420000  0.73726000  0.59884000  1
  C  C372  1  0.52306000  0.73726000  0.40116000  1
  C  C373  1  0.21420000  0.47694000  0.40116000  1
  C  C374  1  0.26274000  0.78580000  0.40116000  1
  C  C375  1  0.47694000  0.26274000  0.40116000  1
  C  C376  1  0.78580000  0.52306000  0.40116000  1
  C  C377  1  0.73726000  0.21420000  0.40116000  1
  C  C378  1  0.28282000  0.50357000  0.35782000  1
  C  C379  1  0.49643000  0.77925000  0.35782000  1
  C  C380  1  0.22075000  0.71718000  0.35782000  1
  C  C381  1  0.71718000  0.49643000  0.35782000  1
  C  C382  1  0.50357000  0.22075000  0.35782000  1
  C  C383  1  0.77925000  0.28282000  0.35782000  1
  C  C384  1  0.50357000  0.28282000  0.64218000  1
  C  C385  1  0.77925000  0.49643000  0.64218000  1
  C  C386  1  0.71718000  0.22075000  0.64218000  1
  C  C387  1  0.49643000  0.71718000  0.64218000  1
  C  C388  1  0.22075000  0.50357000  0.64218000  1
  C  C389  1  0.28282000  0.77925000  0.64218000  1
  C  C390  1  0.71718000  0.49643000  0.64218000  1
  C  C391  1  0.50357000  0.22075000  0.64218000  1
  C  C392  1  0.77925000  0.28282000  0.64218000  1
  C  C393  1  0.28282000  0.50357000  0.64218000  1
  C  C394  1  0.49643000  0.77925000  0.64218000  1
  C  C395  1  0.22075000  0.71718000  0.64218000  1
  C  C396  1  0.49643000  0.71718000  0.35782000  1
  C  C397  1  0.22075000  0.50357000  0.35782000  1
  C  C398  1  0.28282000  0.77925000  0.35782000  1
  C  C399  1  0.50357000  0.28282000  0.35782000  1
  C  C400  1  0.77925000  0.49643000  0.35782000  1
  C  C401  1  0.71718000  0.22075000  0.35782000  1
  C  C402  1  0.30830000  0.50591000  0.31701000  1
  C  C403  1  0.49409000  0.80239000  0.31701000  1
  C  C404  1  0.19761000  0.69170000  0.31701000  1
  C  C405  1  0.69170000  0.49409000  0.31701000  1
  C  C406  1  0.50591000  0.19761000  0.31701000  1
  C  C407  1  0.80239000  0.30830000  0.31701000  1
  C  C408  1  0.50591000  0.30830000  0.68299000  1
  C  C409  1  0.80239000  0.49409000  0.68299000  1
  C  C410  1  0.69170000  0.19761000  0.68299000  1
  C  C411  1  0.49409000  0.69170000  0.68299000  1
  C  C412  1  0.19761000  0.50591000  0.68299000  1
  C  C413  1  0.30830000  0.80239000  0.68299000  1
  C  C414  1  0.69170000  0.49409000  0.68299000  1
  C  C415  1  0.50591000  0.19761000  0.68299000  1
  C  C416  1  0.80239000  0.30830000  0.68299000  1
  C  C417  1  0.30830000  0.50591000  0.68299000  1
  C  C418  1  0.49409000  0.80239000  0.68299000  1
  C  C419  1  0.19761000  0.69170000  0.68299000  1
  C  C420  1  0.49409000  0.69170000  0.31701000  1
  C  C421  1  0.19761000  0.50591000  0.31701000  1
  C  C422  1  0.30830000  0.80239000  0.31701000  1
  C  C423  1  0.50591000  0.30830000  0.31701000  1
  C  C424  1  0.80239000  0.49409000  0.31701000  1
  C  C425  1  0.69170000  0.19761000  0.31701000  1
  C  C426  1  0.23941000  0.47882000  0.45645000  1
  C  C427  1  0.52118000  0.76059000  0.45645000  1
  C  C428  1  0.23941000  0.76059000  0.45645000  1
  C  C429  1  0.76059000  0.52118000  0.45645000  1
  C  C430  1  0.47882000  0.23941000  0.45645000  1
  C  C431  1  0.76059000  0.23941000  0.45645000  1
  C  C432  1  0.47882000  0.23941000  0.54355000  1
  C  C433  1  0.76059000  0.52118000  0.54355000  1
  C  C434  1  0.76059000  0.23941000  0.54355000  1
  C  C435  1  0.52118000  0.76059000  0.54355000  1
  C  C436  1  0.23941000  0.47882000  0.54355000  1
  C  C437  1  0.23941000  0.76059000  0.54355000  1
  H  H438  1  0.36754000  0.44060000  0.19980000  1
  H  H439  1  0.55940000  0.92694000  0.19980000  1
  H  H440  1  0.07306000  0.63246000  0.19980000  1
  H  H441  1  0.63246000  0.55940000  0.19980000  1
  H  H442  1  0.44060000  0.07306000  0.19980000  1
  H  H443  1  0.92694000  0.36754000  0.19980000  1
  H  H444  1  0.44060000  0.36754000  0.80020000  1
  H  H445  1  0.92694000  0.55940000  0.80020000  1
  H  H446  1  0.63246000  0.07306000  0.80020000  1
  H  H447  1  0.55940000  0.63246000  0.80020000  1
  H  H448  1  0.07306000  0.44060000  0.80020000  1
  H  H449  1  0.36754000  0.92694000  0.80020000  1
  H  H450  1  0.63246000  0.55940000  0.80020000  1
  H  H451  1  0.44060000  0.07306000  0.80020000  1
  H  H452  1  0.92694000  0.36754000  0.80020000  1
  H  H453  1  0.36754000  0.44060000  0.80020000  1
  H  H454  1  0.55940000  0.92694000  0.80020000  1
  H  H455  1  0.07306000  0.63246000  0.80020000  1
  H  H456  1  0.55940000  0.63246000  0.19980000  1
  H  H457  1  0.07306000  0.44060000  0.19980000  1
  H  H458  1  0.36754000  0.92694000  0.19980000  1
  H  H459  1  0.44060000  0.36754000  0.19980000  1
  H  H460  1  0.92694000  0.55940000  0.19980000  1
  H  H461  1  0.63246000  0.07306000  0.19980000  1
  H  H462  1  0.32424000  0.43775000  0.26996000  1
  H  H463  1  0.56225000  0.88649000  0.26996000  1
  H  H464  1  0.11351000  0.67576000  0.26996000  1
  H  H465  1  0.67576000  0.56225000  0.26996000  1
  H  H466  1  0.43775000  0.11351000  0.26996000  1
  H  H467  1  0.88649000  0.32424000  0.26996000  1
  H  H468  1  0.43775000  0.32424000  0.73004000  1
  H  H469  1  0.88649000  0.56225000  0.73004000  1
  H  H470  1  0.67576000  0.11351000  0.73004000  1
  H  H471  1  0.56225000  0.67576000  0.73004000  1
  H  H472  1  0.11351000  0.43775000  0.73004000  1
  H  H473  1  0.32424000  0.88649000  0.73004000  1
  H  H474  1  0.67576000  0.56225000  0.73004000  1
  H  H475  1  0.43775000  0.11351000  0.73004000  1
  H  H476  1  0.88649000  0.32424000  0.73004000  1
  H  H477  1  0.32424000  0.43775000  0.73004000  1
  H  H478  1  0.56225000  0.88649000  0.73004000  1
  H  H479  1  0.11351000  0.67576000  0.73004000  1
  H  H480  1  0.56225000  0.67576000  0.26996000  1
  H  H481  1  0.11351000  0.43775000  0.26996000  1
  H  H482  1  0.32424000  0.88649000  0.26996000  1
  H  H483  1  0.43775000  0.32424000  0.26996000  1
  H  H484  1  0.88649000  0.56225000  0.26996000  1
  H  H485  1  0.67576000  0.11351000  0.26996000  1
  H  H486  1  0.36645000  0.53194000  0.26824000  1
  H  H487  1  0.46806000  0.83451000  0.26824000  1
  H  H488  1  0.16549000  0.63355000  0.26824000  1
  H  H489  1  0.63355000  0.46806000  0.26824000  1
  H  H490  1  0.53194000  0.16549000  0.26824000  1
  H  H491  1  0.83451000  0.36645000  0.26824000  1
  H  H492  1  0.53194000  0.36645000  0.73176000  1
  H  H493  1  0.83451000  0.46806000  0.73176000  1
  H  H494  1  0.63355000  0.16549000  0.73176000  1
  H  H495  1  0.46806000  0.63355000  0.73176000  1
  H  H496  1  0.16549000  0.53194000  0.73176000  1
  H  H497  1  0.36645000  0.83451000  0.73176000  1
  H  H498  1  0.63355000  0.46806000  0.73176000  1
  H  H499  1  0.53194000  0.16549000  0.73176000  1
  H  H500  1  0.83451000  0.36645000  0.73176000  1
  H  H501  1  0.36645000  0.53194000  0.73176000  1
  H  H502  1  0.46806000  0.83451000  0.73176000  1
  H  H503  1  0.16549000  0.63355000  0.73176000  1
  H  H504  1  0.46806000  0.63355000  0.26824000  1
  H  H505  1  0.16549000  0.53194000  0.26824000  1
  H  H506  1  0.36645000  0.83451000  0.26824000  1
  H  H507  1  0.53194000  0.36645000  0.26824000  1
  H  H508  1  0.83451000  0.46806000  0.26824000  1
  H  H509  1  0.63355000  0.16549000  0.26824000  1
  H  H510  1  0.40954000  0.53466000  0.19834000  1
  H  H511  1  0.46534000  0.87488000  0.19834000  1
  H  H512  1  0.12512000  0.59046000  0.19834000  1
  H  H513  1  0.59046000  0.46534000  0.19834000  1
  H  H514  1  0.53466000  0.12512000  0.19834000  1
  H  H515  1  0.87488000  0.40954000  0.19834000  1
  H  H516  1  0.53466000  0.40954000  0.80166000  1
  H  H517  1  0.87488000  0.46534000  0.80166000  1
  H  H518  1  0.59046000  0.12512000  0.80166000  1
  H  H519  1  0.46534000  0.59046000  0.80166000  1
  H  H520  1  0.12512000  0.53466000  0.80166000  1
  H  H521  1  0.40954000  0.87488000  0.80166000  1
  H  H522  1  0.59046000  0.46534000  0.80166000  1
  H  H523  1  0.53466000  0.12512000  0.80166000  1
  H  H524  1  0.87488000  0.40954000  0.80166000  1
  H  H525  1  0.40954000  0.53466000  0.80166000  1
  H  H526  1  0.46534000  0.87488000  0.80166000  1
  H  H527  1  0.12512000  0.59046000  0.80166000  1
  H  H528  1  0.46534000  0.59046000  0.19834000  1
  H  H529  1  0.12512000  0.53466000  0.19834000  1
  H  H530  1  0.40954000  0.87488000  0.19834000  1
  H  H531  1  0.53466000  0.40954000  0.19834000  1
  H  H532  1  0.87488000  0.46534000  0.19834000  1
  H  H533  1  0.59046000  0.12512000  0.19834000  1
  H  H534  1  0.29800000  0.43601000  0.36467000  1
  H  H535  1  0.56399000  0.86199000  0.36467000  1
  H  H536  1  0.13801000  0.70200000  0.36467000  1
  H  H537  1  0.70200000  0.56399000  0.36467000  1
  H  H538  1  0.43601000  0.13801000  0.36467000  1
  H  H539  1  0.86199000  0.29800000  0.36467000  1
  H  H540  1  0.43601000  0.29800000  0.63533000  1
  H  H541  1  0.86199000  0.56399000  0.63533000  1
  H  H542  1  0.70200000  0.13801000  0.63533000  1
  H  H543  1  0.56399000  0.70200000  0.63533000  1
  H  H544  1  0.13801000  0.43601000  0.63533000  1
  H  H545  1  0.29800000  0.86199000  0.63533000  1
  H  H546  1  0.70200000  0.56399000  0.63533000  1
  H  H547  1  0.43601000  0.13801000  0.63533000  1
  H  H548  1  0.86199000  0.29800000  0.63533000  1
  H  H549  1  0.29800000  0.43601000  0.63533000  1
  H  H550  1  0.56399000  0.86199000  0.63533000  1
  H  H551  1  0.13801000  0.70200000  0.63533000  1
  H  H552  1  0.56399000  0.70200000  0.36467000  1
  H  H553  1  0.13801000  0.43601000  0.36467000  1
  H  H554  1  0.29800000  0.86199000  0.36467000  1
  H  H555  1  0.43601000  0.29800000  0.36467000  1
  H  H556  1  0.86199000  0.56399000  0.36467000  1
  H  H557  1  0.70200000  0.13801000  0.36467000  1
  H  H558  1  0.25384000  0.43356000  0.43466000  1
  H  H559  1  0.56644000  0.82028000  0.43466000  1
  H  H560  1  0.17972000  0.74616000  0.43466000  1
  H  H561  1  0.74616000  0.56644000  0.43466000  1
  H  H562  1  0.43356000  0.17972000  0.43466000  1
  H  H563  1  0.82028000  0.25384000  0.43466000  1
  H  H564  1  0.43356000  0.25384000  0.56534000  1
  H  H565  1  0.82028000  0.56644000  0.56534000  1
  H  H566  1  0.74616000  0.17972000  0.56534000  1
  H  H567  1  0.56644000  0.74616000  0.56534000  1
  H  H568  1  0.17972000  0.43356000  0.56534000  1
  H  H569  1  0.25384000  0.82028000  0.56534000  1
  H  H570  1  0.74616000  0.56644000  0.56534000  1
  H  H571  1  0.43356000  0.17972000  0.56534000  1
  H  H572  1  0.82028000  0.25384000  0.56534000  1
  H  H573  1  0.25384000  0.43356000  0.56534000  1
  H  H574  1  0.56644000  0.82028000  0.56534000  1
  H  H575  1  0.17972000  0.74616000  0.56534000  1
  H  H576  1  0.56644000  0.74616000  0.43466000  1
  H  H577  1  0.17972000  0.43356000  0.43466000  1
  H  H578  1  0.25384000  0.82028000  0.43466000  1
  H  H579  1  0.43356000  0.25384000  0.43466000  1
  H  H580  1  0.82028000  0.56644000  0.43466000  1
  H  H581  1  0.74616000  0.17972000  0.43466000  1
  H  H582  1  0.27891000  0.52103000  0.35603000  1
  H  H583  1  0.47897000  0.75788000  0.35603000  1
  H  H584  1  0.24212000  0.72109000  0.35603000  1
  H  H585  1  0.72109000  0.47897000  0.35603000  1
  H  H586  1  0.52103000  0.24212000  0.35603000  1
  H  H587  1  0.75788000  0.27891000  0.35603000  1
  H  H588  1  0.52103000  0.27891000  0.64397000  1
  H  H589  1  0.75788000  0.47897000  0.64397000  1
  H  H590  1  0.72109000  0.24212000  0.64397000  1
  H  H591  1  0.47897000  0.72109000  0.64397000  1
  H  H592  1  0.24212000  0.52103000  0.64397000  1
  H  H593  1  0.27891000  0.75788000  0.64397000  1
  H  H594  1  0.72109000  0.47897000  0.64397000  1
  H  H595  1  0.52103000  0.24212000  0.64397000  1
  H  H596  1  0.75788000  0.27891000  0.64397000  1
  H  H597  1  0.27891000  0.52103000  0.64397000  1
  H  H598  1  0.47897000  0.75788000  0.64397000  1
  H  H599  1  0.24212000  0.72109000  0.64397000  1
  H  H600  1  0.47897000  0.72109000  0.35603000  1
  H  H601  1  0.24212000  0.52103000  0.35603000  1
  H  H602  1  0.27891000  0.75788000  0.35603000  1
  H  H603  1  0.52103000  0.27891000  0.35603000  1
  H  H604  1  0.75788000  0.47897000  0.35603000  1
  H  H605  1  0.72109000  0.24212000  0.35603000  1
  H  H606  1  0.32272000  0.52505000  0.28588000  1
  H  H607  1  0.47495000  0.79767000  0.28588000  1
  H  H608  1  0.20233000  0.67728000  0.28588000  1
  H  H609  1  0.67728000  0.47495000  0.28588000  1
  H  H610  1  0.52505000  0.20233000  0.28588000  1
  H  H611  1  0.79767000  0.32272000  0.28588000  1
  H  H612  1  0.52505000  0.32272000  0.71412000  1
  H  H613  1  0.79767000  0.47495000  0.71412000  1
  H  H614  1  0.67728000  0.20233000  0.71412000  1
  H  H615  1  0.47495000  0.67728000  0.71412000  1
  H  H616  1  0.20233000  0.52505000  0.71412000  1
  H  H617  1  0.32272000  0.79767000  0.71412000  1
  H  H618  1  0.67728000  0.47495000  0.71412000  1
  H  H619  1  0.52505000  0.20233000  0.71412000  1
  H  H620  1  0.79767000  0.32272000  0.71412000  1
  H  H621  1  0.32272000  0.52505000  0.71412000  1
  H  H622  1  0.47495000  0.79767000  0.71412000  1
  H  H623  1  0.20233000  0.67728000  0.71412000  1
  H  H624  1  0.47495000  0.67728000  0.28588000  1
  H  H625  1  0.20233000  0.52505000  0.28588000  1
  H  H626  1  0.32272000  0.79767000  0.28588000  1
  H  H627  1  0.52505000  0.32272000  0.28588000  1
  H  H628  1  0.79767000  0.47495000  0.28588000  1
  H  H629  1  0.67728000  0.20233000  0.28588000  1
