# generated using pymatgen
data_CaC2O5
_symmetry_space_group_name_H-M   'P 1'
_cell_length_a   10.09020000
_cell_length_b   14.54940000
_cell_length_c   6.27030000
_cell_angle_alpha   90.00000000
_cell_angle_beta   109.53200000
_cell_angle_gamma   90.00000000
_symmetry_Int_Tables_number   1
_chemical_formula_structural   CaC2O5
_chemical_formula_sum   'Ca8 C16 O40'
_cell_volume   867.54849424
_cell_formula_units_Z   8
loop_
 _symmetry_equiv_pos_site_id
 _symmetry_equiv_pos_as_xyz
  1  'x, y, z'
loop_
 _atom_site_type_symbol
 _atom_site_label
 _atom_site_symmetry_multiplicity
 _atom_site_fract_x
 _atom_site_fract_y
 _atom_site_fract_z
 _atom_site_occupancy
  Ca  Ca0  1  0.44556800  0.37600700  0.53514160  1
  Ca  Ca1  1  0.05443200  0.87600700  0.46485840  1
  Ca  Ca2  1  0.55443200  0.62399300  0.46485840  1
  Ca  Ca3  1  0.94556800  0.12399300  0.53514160  1
  Ca  Ca4  1  0.06485800  0.37695700  0.50580160  1
  Ca  Ca5  1  0.43514200  0.87695700  0.49419840  1
  Ca  Ca6  1  0.93514200  0.62304300  0.49419840  1
  Ca  Ca7  1  0.56485800  0.12304300  0.50580160  1
  O  O8  1  0.35923000  0.53412000  0.50667000  1
  O  O9  1  0.14077000  0.03412000  0.49333000  1
  O  O10  1  0.64077000  0.46588000  0.49333000  1
  O  O11  1  0.85923000  0.96588000  0.50667000  1
  O  O12  1  0.14293000  0.53482000  0.51167000  1
  O  O13  1  0.35707000  0.03482000  0.48833000  1
  O  O14  1  0.85707000  0.46518000  0.48833000  1
  O  O15  1  0.64293000  0.96518000  0.51167000  1
  O  O16  1  0.13353000  0.71782000  0.47316000  1
  O  O17  1  0.36647000  0.21782000  0.52684000  1
  O  O18  1  0.86647000  0.28218000  0.52684000  1
  O  O19  1  0.63353000  0.78218000  0.47316000  1
  O  O20  1  0.35153000  0.71822000  0.47426000  1
  O  O21  1  0.14847000  0.21822000  0.52574000  1
  O  O22  1  0.64847000  0.28178000  0.52574000  1
  O  O23  1  0.85153000  0.78178000  0.47426000  1
  C  C24  1  0.31434000  0.37293000  0.97999000  1
  C  C25  1  0.18566000  0.87293000  0.02001000  1
  C  C26  1  0.68566000  0.62707000  0.02001000  1
  C  C27  1  0.81434000  0.12707000  0.97999000  1
  C  C28  1  0.18954000  0.38303000  0.05669000  1
  C  C29  1  0.31046000  0.88303000  0.94331000  1
  C  C30  1  0.81046000  0.61697000  0.94331000  1
  C  C31  1  0.68954000  0.11697000  0.05669000  1
  O  O32  1  0.29963000  0.37772000  0.77576000  1
  O  O33  1  0.20037000  0.87772000  0.22424000  1
  O  O34  1  0.70037000  0.62228000  0.22424000  1
  O  O35  1  0.79963000  0.12228000  0.77576000  1
  O  O36  1  0.20723000  0.37792000  0.26106000  1
  O  O37  1  0.29277000  0.87792000  0.73894000  1
  O  O38  1  0.79277000  0.62208000  0.73894000  1
  O  O39  1  0.70723000  0.12208000  0.26106000  1
  C  C40  1  0.24604000  0.68083000  0.48218000  1
  C  C41  1  0.25396000  0.18083000  0.51782000  1
  C  C42  1  0.75396000  0.31917000  0.51782000  1
  C  C43  1  0.74604000  0.81917000  0.48218000  1
  C  C44  1  0.24984000  0.57283000  0.50288000  1
  C  C45  1  0.25016000  0.07283000  0.49712000  1
  C  C46  1  0.75016000  0.42717000  0.49712000  1
  C  C47  1  0.74984000  0.92717000  0.50288000  1
  O  O48  1  0.42863000  0.35633000  0.13917000  1
  O  O49  1  0.07137000  0.85633000  0.86083000  1
  O  O50  1  0.57137000  0.64367000  0.86083000  1
  O  O51  1  0.92863000  0.14367000  0.13917000  1
  O  O52  1  0.07533000  0.39363000  0.89687000  1
  O  O53  1  0.42467000  0.89363000  0.10313000  1
  O  O54  1  0.92467000  0.60637000  0.10313000  1
  O  O55  1  0.57533000  0.10637000  0.89687000  1
