# generated using pymatgen
data_AlH3C5N2O9
_symmetry_space_group_name_H-M   'P 1'
_cell_length_a   12.38200000
_cell_length_b   15.04200000
_cell_length_c   14.04400000
_cell_angle_alpha   90.00000000
_cell_angle_beta   102.75600000
_cell_angle_gamma   90.00000000
_symmetry_Int_Tables_number   1
_chemical_formula_structural   AlH3C5N2O9
_chemical_formula_sum   'Al8 H24 C40 N16 O72'
_cell_volume   2551.13816741
_cell_formula_units_Z   8
loop_
 _symmetry_equiv_pos_site_id
 _symmetry_equiv_pos_as_xyz
  1  'x, y, z'
loop_
 _atom_site_type_symbol
 _atom_site_label
 _atom_site_symmetry_multiplicity
 _atom_site_fract_x
 _atom_site_fract_y
 _atom_site_fract_z
 _atom_site_occupancy
  Al  Al0  1  0.00000000  0.50000000  0.50000000  1
  Al  Al1  1  0.00000000  0.00000000  0.00000000  1
  Al  Al2  1  0.50000000  0.50000000  0.50000000  1
  Al  Al3  1  0.50000000  0.00000000  0.00000000  1
  Al  Al4  1  0.26578000  0.56075000  0.55948000  1
  Al  Al5  1  0.73422000  0.06075000  0.94052000  1
  Al  Al6  1  0.73422000  0.43925000  0.44052000  1
  Al  Al7  1  0.26578000  0.93925000  0.05948000  1
  O  O8  1  0.15251600  0.48199000  0.51731300  1
  O  O9  1  0.84748400  0.98199000  0.98268700  1
  O  O10  1  0.84748400  0.51801000  0.48268700  1
  O  O11  1  0.15251600  0.01801000  0.01731300  1
  H  H12  1  0.17374000  0.42516000  0.50249000  1
  H  H13  1  0.82626000  0.92516000  0.00000000  1
  H  H14  1  0.82626000  0.57484000  0.49751000  1
  H  H15  1  0.17374000  0.07484000  0.00249000  1
  O  O16  1  0.34601600  0.52289000  0.47801400  1
  O  O17  1  0.65398400  0.02289000  0.02198600  1
  O  O18  1  0.65398400  0.47711000  0.52198600  1
  O  O19  1  0.34601600  0.97711000  0.97801400  1
  H  H20  1  0.30653000  0.51253000  0.41455000  1
  H  H21  1  0.69347000  0.01253000  0.08545000  1
  H  H22  1  0.69347000  0.48747000  0.58545000  1
  H  H23  1  0.30653000  0.98747000  0.91455000  1
  O  O24  1  0.53311800  0.61101100  0.57051500  1
  O  O25  1  0.46688200  0.11101100  0.92948500  1
  O  O26  1  0.46688200  0.38898900  0.42948500  1
  O  O27  1  0.53311800  0.88898900  0.07051500  1
  O  O28  1  0.50691800  0.93391000  0.88511600  1
  O  O29  1  0.49308200  0.43391000  0.61488400  1
  O  O30  1  0.49308200  0.06609000  0.11488400  1
  O  O31  1  0.50691800  0.56609000  0.38511600  1
  O  O32  1  0.37220000  0.64751000  0.61501600  1
  O  O33  1  0.62780000  0.14751000  0.88498400  1
  O  O34  1  0.62780000  0.35249000  0.38498400  1
  O  O35  1  0.37220000  0.85249000  0.11501600  1
  O  O36  1  0.66841700  0.97811000  0.84041500  1
  O  O37  1  0.33158300  0.47811000  0.65958500  1
  O  O38  1  0.33158300  0.02189000  0.15958500  1
  O  O39  1  0.66841700  0.52189000  0.34041500  1
  O  O40  1  0.19320000  0.60611100  0.65381600  1
  O  O41  1  0.80680000  0.10611100  0.84618400  1
  O  O42  1  0.80680000  0.39388900  0.34618400  1
  O  O43  1  0.19320000  0.89388900  0.15381600  1
  O  O44  1  0.19821900  0.84931000  0.97511600  1
  O  O45  1  0.80178100  0.34931000  0.52488400  1
  O  O46  1  0.80178100  0.15069000  0.02488400  1
  O  O47  1  0.19821900  0.65069000  0.47511600  1
  O  O48  1  0.02001900  0.55311100  0.62611600  1
  O  O49  1  0.97998100  0.05311100  0.87388400  1
  O  O50  1  0.97998100  0.44688900  0.37388400  1
  O  O51  1  0.02001900  0.94688900  0.12611600  1
  O  O52  1  0.01220000  0.88161200  0.94461600  1
  O  O53  1  0.98780000  0.38161200  0.55538400  1
  O  O54  1  0.98780000  0.11838800  0.05538400  1
  O  O55  1  0.01220000  0.61838800  0.44461600  1
  C  C56  1  0.08820000  0.60271400  0.67620000  1
  C  C57  1  0.91180000  0.10271400  0.82380000  1
  C  C58  1  0.91180000  0.39728600  0.32380000  1
  C  C59  1  0.08820000  0.89728600  0.17620000  1
  C  C60  1  0.56930000  0.85701600  0.76320000  1
  C  C61  1  0.43070000  0.35701600  0.73680000  1
  C  C62  1  0.43070000  0.14298400  0.23680000  1
  C  C63  1  0.56930000  0.64298400  0.26320000  1
  C  C64  1  0.58230000  0.92931500  0.83320000  1
  C  C65  1  0.41770000  0.42931500  0.66680000  1
  C  C66  1  0.41770000  0.07068500  0.16680000  1
  C  C67  1  0.58230000  0.57068500  0.33320000  1
  N  N68  1  0.64430000  0.84041600  0.71220000  1
  N  N69  1  0.35570000  0.34041600  0.78780000  1
  N  N70  1  0.35570000  0.15958400  0.28780000  1
  N  N71  1  0.64430000  0.65958400  0.21220000  1
  H  H72  1  0.70070000  0.87455000  0.71498000  1
  H  H73  1  0.29930000  0.37455000  0.78502000  1
  H  H74  1  0.29930000  0.12545000  0.28502000  1
  H  H75  1  0.70070000  0.62545000  0.21498000  1
  C  C76  1  0.07130000  0.65831600  0.75020000  1
  C  C77  1  0.92870000  0.15831600  0.74980000  1
  C  C78  1  0.92870000  0.34168400  0.24980000  1
  C  C79  1  0.07130000  0.84168400  0.25020000  1
  N  N80  1  0.96470000  0.66091600  0.76520000  1
  N  N81  1  0.03530000  0.16091600  0.73480000  1
  N  N82  1  0.03530000  0.33908400  0.23480000  1
  N  N83  1  0.96470000  0.83908400  0.26520000  1
  N  N84  1  0.62930000  0.76671700  0.65430000  1
  N  N85  1  0.37070000  0.26671700  0.84570000  1
  N  N86  1  0.37070000  0.23328300  0.34570000  1
  N  N87  1  0.62930000  0.73328300  0.15430000  1
  C  C88  1  0.52530000  0.73961800  0.66330000  1
  C  C89  1  0.47470000  0.23961800  0.83670000  1
  C  C90  1  0.47470000  0.26038200  0.33670000  1
  C  C91  1  0.52530000  0.76038200  0.16330000  1
  N  N92  1  0.96570000  0.72511300  0.83920000  1
  N  N93  1  0.03430000  0.22511300  0.66080000  1
  N  N94  1  0.03430000  0.27488700  0.16080000  1
  N  N95  1  0.96570000  0.77488700  0.33920000  1
  H  H96  1  0.91014000  0.73906000  0.86282000  1
  H  H97  1  0.08986000  0.23906000  0.63718000  1
  H  H98  1  0.08986000  0.26094000  0.13718000  1
  H  H99  1  0.91014000  0.76094000  0.36282000  1
  C  C100  1  0.13430000  0.71591500  0.81420000  1
  C  C101  1  0.86570000  0.21591500  0.68580000  1
  C  C102  1  0.86570000  0.28408500  0.18580000  1
  C  C103  1  0.13430000  0.78408500  0.31420000  1
  H  H104  1  0.21019000  0.72249000  0.82017000  1
  H  H105  1  0.78981000  0.22249000  0.67983000  1
  H  H106  1  0.78981000  0.27751000  0.17983000  1
  H  H107  1  0.21019000  0.77751000  0.32017000  1
  C  C108  1  0.47130000  0.66051700  0.61320000  1
  C  C109  1  0.52870000  0.16051700  0.88680000  1
  C  C110  1  0.52870000  0.33948300  0.38680000  1
  C  C111  1  0.47130000  0.83948300  0.11320000  1
  C  C112  1  0.09530000  0.83531700  0.93330000  1
  C  C113  1  0.90470000  0.33531700  0.56670000  1
  C  C114  1  0.90470000  0.16468300  0.06670000  1
  C  C115  1  0.09530000  0.66468300  0.43330000  1
  C  C116  1  0.07430000  0.76320000  0.86730000  1
  C  C117  1  0.92570000  0.26320000  0.63270000  1
  C  C118  1  0.92570000  0.23680000  0.13270000  1
  C  C119  1  0.07430000  0.73680000  0.36730000  1
  C  C120  1  0.48630000  0.80091700  0.72830000  1
  C  C121  1  0.51370000  0.30091700  0.77170000  1
  C  C122  1  0.51370000  0.19908300  0.27170000  1
  C  C123  1  0.48630000  0.69908300  0.22830000  1
  H  H124  1  0.41652000  0.80098000  0.74353000  1
  H  H125  1  0.58348000  0.30098000  0.75647000  1
  H  H126  1  0.58348000  0.19902000  0.25647000  1
  H  H127  1  0.41652000  0.69902000  0.24353000  1
