# generated using pymatgen
data_Mn3H54C52(NO4)4
_symmetry_space_group_name_H-M   'P 1'
_cell_length_a   14.15351300
_cell_length_b   18.27181700
_cell_length_c   21.12120000
_cell_angle_alpha   90.00000000
_cell_angle_beta   100.01991000
_cell_angle_gamma   90.00000000
_symmetry_Int_Tables_number   1
_chemical_formula_structural   Mn3H54C52(NO4)4
_chemical_formula_sum   'Mn12 H216 C208 N16 O64'
_cell_volume   5378.84953310
_cell_formula_units_Z   4
loop_
 _symmetry_equiv_pos_site_id
 _symmetry_equiv_pos_as_xyz
  1  'x, y, z'
loop_
 _atom_site_type_symbol
 _atom_site_label
 _atom_site_symmetry_multiplicity
 _atom_site_fract_x
 _atom_site_fract_y
 _atom_site_fract_z
 _atom_site_occupancy
  Mn  Mn0  1  0.72685200  0.25820200  0.18841200  1
  Mn  Mn1  1  0.27314800  0.25820200  0.31158800  1
  Mn  Mn2  1  0.22685200  0.75820200  0.18841200  1
  Mn  Mn3  1  0.77314800  0.75820200  0.31158800  1
  Mn  Mn4  1  0.27314800  0.74179800  0.81158800  1
  Mn  Mn5  1  0.72685200  0.74179800  0.68841200  1
  Mn  Mn6  1  0.77314800  0.24179800  0.81158800  1
  Mn  Mn7  1  0.22685200  0.24179800  0.68841200  1
  Mn  Mn8  1  0.50000000  0.24770200  0.25000000  1
  Mn  Mn9  1  0.00000000  0.74770200  0.25000000  1
  Mn  Mn10  1  0.50000000  0.75229800  0.75000000  1
  Mn  Mn11  1  0.00000000  0.25229800  0.75000000  1
  O  O12  1  0.64616100  0.35257800  0.16091700  1
  O  O13  1  0.35383900  0.35257800  0.33908300  1
  O  O14  1  0.14616100  0.85257800  0.16091700  1
  O  O15  1  0.85383900  0.85257800  0.33908300  1
  O  O16  1  0.35383900  0.64742200  0.83908300  1
  O  O17  1  0.64616100  0.64742200  0.66091700  1
  O  O18  1  0.85383900  0.14742200  0.83908300  1
  O  O19  1  0.14616100  0.14742200  0.66091700  1
  O  O20  1  0.49555100  0.32924800  0.17571600  1
  O  O21  1  0.50444900  0.32924800  0.32428400  1
  O  O22  1  0.00000000  0.82924800  0.17571600  1
  O  O23  1  0.00444900  0.82924800  0.32428400  1
  O  O24  1  0.50444900  0.67075200  0.82428400  1
  O  O25  1  0.49555100  0.67075200  0.67571600  1
  O  O26  1  0.00444900  0.17075200  0.82428400  1
  O  O27  1  0.00000000  0.17075200  0.67571600  1
  C  C28  1  0.55655140  0.35963900  0.14764800  1
  C  C29  1  0.44344860  0.35963900  0.35235200  1
  C  C30  1  0.05655140  0.85963900  0.14764800  1
  C  C31  1  0.94344860  0.85963900  0.35235200  1
  C  C32  1  0.44344860  0.64036100  0.85235200  1
  C  C33  1  0.55655140  0.64036100  0.64764800  1
  C  C34  1  0.94344860  0.14036100  0.85235200  1
  C  C35  1  0.05655140  0.14036100  0.64764800  1
  C  C36  1  0.51932130  0.41049100  0.09274800  1
  C  C37  1  0.48067870  0.41049100  0.40725200  1
  C  C38  1  0.01932130  0.91049100  0.09274800  1
  C  C39  1  0.98067870  0.91049100  0.40725200  1
  C  C40  1  0.48067870  0.58950900  0.90725200  1
  C  C41  1  0.51932130  0.58950900  0.59274800  1
  C  C42  1  0.98067870  0.08950900  0.90725200  1
  C  C43  1  0.01932130  0.08950900  0.59274800  1
  C  C44  1  0.58246130  0.45356100  0.06667800  1
  C  C45  1  0.41753870  0.45356100  0.43332200  1
  C  C46  1  0.08246130  0.95356100  0.06667800  1
  C  C47  1  0.91753870  0.95356100  0.43332200  1
  C  C48  1  0.41753870  0.54643900  0.93332200  1
  C  C49  1  0.58246130  0.54643900  0.56667800  1
  C  C50  1  0.91753870  0.04643900  0.93332200  1
  C  C51  1  0.08246130  0.04643900  0.56667800  1
  H  H52  1  0.64885000  0.45226000  0.08452000  1
  H  H53  1  0.35115000  0.45226000  0.41548000  1
  H  H54  1  0.14885000  0.95226000  0.08452000  1
  H  H55  1  0.85115000  0.95226000  0.41548000  1
  H  H56  1  0.35115000  0.54774000  0.91548000  1
  H  H57  1  0.64885000  0.54774000  0.58452000  1
  H  H58  1  0.85115000  0.04774000  0.91548000  1
  H  H59  1  0.14885000  0.04774000  0.58452000  1
  C  C60  1  0.42039140  0.41147110  0.06606900  1
  C  C61  1  0.57960860  0.41147110  0.43393100  1
  C  C62  1  0.92039140  0.91147110  0.06606900  1
  C  C63  1  0.07960860  0.91147110  0.43393100  1
  C  C64  1  0.57960860  0.58852890  0.93393100  1
  C  C65  1  0.42039140  0.58852890  0.56606900  1
  C  C66  1  0.07960860  0.08852890  0.93393100  1
  C  C67  1  0.92039140  0.08852890  0.56606900  1
  H  H68  1  0.37702000  0.38166000  0.08422000  1
  H  H69  1  0.62298000  0.38166000  0.41578000  1
  H  H70  1  0.87702000  0.88166000  0.08422000  1
  H  H71  1  0.12298000  0.88166000  0.41578000  1
  H  H72  1  0.62298000  0.61834000  0.91578000  1
  H  H73  1  0.37702000  0.61834000  0.58422000  1
  H  H74  1  0.12298000  0.11834000  0.91578000  1
  H  H75  1  0.87702000  0.11834000  0.58422000  1
  C  C76  1  0.38662140  0.45514110  0.01418100  1
  C  C77  1  0.61337860  0.45514110  0.48581900  1
  C  C78  1  0.88662140  0.95514110  0.01418100  1
  C  C79  1  0.11337860  0.95514110  0.48581900  1
  C  C80  1  0.61337860  0.54485890  0.98581900  1
  C  C81  1  0.38662140  0.54485890  0.51418100  1
  C  C82  1  0.11337860  0.04485890  0.98581900  1
  C  C83  1  0.88662140  0.04485890  0.51418100  1
  H  H84  1  0.32009000  0.45523000  0.00000000  1
  H  H85  1  0.67991000  0.45523000  0.50334000  1
  H  H86  1  0.82009000  0.95523000  0.00000000  1
  H  H87  1  0.17991000  0.95523000  0.50334000  1
  H  H88  1  0.67991000  0.54477000  0.00334000  1
  H  H89  1  0.32009000  0.54477000  0.49666000  1
  H  H90  1  0.17991000  0.04477000  0.00334000  1
  H  H91  1  0.82009000  0.04477000  0.49666000  1
  C  C92  1  0.45024130  0.50013100  0.98649200  1
  C  C93  1  0.54975870  0.50013100  0.51350800  1
  C  C94  1  0.95024130  0.00013100  0.98649200  1
  C  C95  1  0.04975870  0.00013100  0.51350800  1
  C  C96  1  0.54975870  0.49986900  0.01350800  1
  C  C97  1  0.45024130  0.49986900  0.48649200  1
  C  C98  1  0.04975870  0.00000000  0.01350800  1
  C  C99  1  0.95024130  0.00000000  0.48649200  1
  O  O100  1  0.63319120  0.18783900  0.12850700  1
  O  O101  1  0.36680880  0.18783900  0.37149300  1
  O  O102  1  0.13319120  0.68783900  0.12850700  1
  O  O103  1  0.86680880  0.68783900  0.37149300  1
  O  O104  1  0.36680880  0.81216100  0.87149300  1
  O  O105  1  0.63319120  0.81216100  0.62850700  1
  O  O106  1  0.86680880  0.31216100  0.87149300  1
  O  O107  1  0.13319120  0.31216100  0.62850700  1
  O  O108  1  0.51453110  0.16132800  0.18274600  1
  O  O109  1  0.48546890  0.16132800  0.31725400  1
  O  O110  1  0.01453110  0.66132800  0.18274600  1
  O  O111  1  0.98546890  0.66132800  0.31725400  1
  O  O112  1  0.48546890  0.83867200  0.81725400  1
  O  O113  1  0.51453110  0.83867200  0.68274600  1
  O  O114  1  0.98546890  0.33867200  0.81725400  1
  O  O115  1  0.01453110  0.33867200  0.68274600  1
  C  C116  1  0.56198150  0.15113100  0.13879900  1
  C  C117  1  0.43801850  0.15113100  0.36120100  1
  C  C118  1  0.06198150  0.65113100  0.13879900  1
  C  C119  1  0.93801850  0.65113100  0.36120100  1
  C  C120  1  0.43801850  0.84886900  0.86120100  1
  C  C121  1  0.56198150  0.84886900  0.63879900  1
  C  C122  1  0.93801850  0.34886900  0.86120100  1
  C  C123  1  0.06198150  0.34886900  0.63879900  1
  C  C124  1  0.53018140  0.08877110  0.09321900  1
  C  C125  1  0.46981860  0.08877110  0.40678100  1
  C  C126  1  0.03018140  0.58877110  0.09321900  1
  C  C127  1  0.96981860  0.58877110  0.40678100  1
  C  C128  1  0.46981860  0.91122890  0.90678100  1
  C  C129  1  0.53018140  0.91122890  0.59321900  1
  C  C130  1  0.96981860  0.41122890  0.90678100  1
  C  C131  1  0.03018140  0.41122890  0.59321900  1
  C  C132  1  0.56733140  0.08153110  0.03764900  1
  C  C133  1  0.43266860  0.08153110  0.46235100  1
  C  C134  1  0.06733140  0.58153110  0.03764900  1
  C  C135  1  0.93266860  0.58153110  0.46235100  1
  C  C136  1  0.43266860  0.91846890  0.96235100  1
  C  C137  1  0.56733140  0.91846890  0.53764900  1
  C  C138  1  0.93266860  0.41846890  0.96235100  1
  C  C139  1  0.06733140  0.41846890  0.53764900  1
  H  H140  1  0.61497000  0.11486000  0.02893000  1
  H  H141  1  0.38503000  0.11486000  0.47107000  1
  H  H142  1  0.11497000  0.61486000  0.02893000  1
  H  H143  1  0.88503000  0.61486000  0.47107000  1
  H  H144  1  0.38503000  0.88514000  0.97107000  1
  H  H145  1  0.61497000  0.88514000  0.52893000  1
  H  H146  1  0.88503000  0.38514000  0.97107000  1
  H  H147  1  0.11497000  0.38514000  0.52893000  1
  C  C148  1  0.46034160  0.03888120  0.10709100  1
  C  C149  1  0.53965840  0.03888120  0.39290900  1
  C  C150  1  0.96034160  0.53888120  0.10709100  1
  C  C151  1  0.03965840  0.53888120  0.39290900  1
  C  C152  1  0.53965840  0.96111880  0.89290900  1
  C  C153  1  0.46034160  0.96111880  0.60709100  1
  C  C154  1  0.03965840  0.46111880  0.89290900  1
  C  C155  1  0.96034160  0.46111880  0.60709100  1
  H  H156  1  0.43521000  0.04394000  0.14574000  1
  H  H157  1  0.56479000  0.04394000  0.35426000  1
  H  H158  1  0.93521000  0.54394000  0.14574000  1
  H  H159  1  0.06479000  0.54394000  0.35426000  1
  H  H160  1  0.56479000  0.95606000  0.85426000  1
  H  H161  1  0.43521000  0.95606000  0.64574000  1
  H  H162  1  0.06479000  0.45606000  0.85426000  1
  H  H163  1  0.93521000  0.45606000  0.64574000  1
  C  C164  1  0.42847170  0.98315880  0.06524100  1
  C  C165  1  0.57152830  0.98315880  0.43475900  1
  C  C166  1  0.92847170  0.48315880  0.06524100  1
  C  C167  1  0.07152830  0.48315880  0.43475900  1
  C  C168  1  0.57152830  0.01684120  0.93475900  1
  C  C169  1  0.42847170  0.01684120  0.56524100  1
  C  C170  1  0.07152830  0.51684120  0.93475900  1
  C  C171  1  0.92847170  0.51684120  0.56524100  1
  H  H172  1  0.38190000  0.94968000  0.07531000  1
  H  H173  1  0.61810000  0.94968000  0.42469000  1
  H  H174  1  0.88190000  0.44968000  0.07531000  1
  H  H175  1  0.11810000  0.44968000  0.42469000  1
  H  H176  1  0.61810000  0.05032000  0.92469000  1
  H  H177  1  0.38190000  0.05032000  0.57531000  1
  H  H178  1  0.11810000  0.55032000  0.92469000  1
  H  H179  1  0.88190000  0.55032000  0.57531000  1
  C  C180  1  0.46460140  0.97518890  0.00698900  1
  C  C181  1  0.53539860  0.97518890  0.49301100  1
  C  C182  1  0.96460140  0.47518890  0.00698900  1
  C  C183  1  0.03539860  0.47518890  0.49301100  1
  C  C184  1  0.53539860  0.02481110  0.99301100  1
  C  C185  1  0.46460140  0.02481110  0.50698900  1
  C  C186  1  0.03539860  0.52481110  0.99301100  1
  C  C187  1  0.96460140  0.52481110  0.50698900  1
  O  O188  1  0.34112100  0.24251700  0.22165600  1
  O  O189  1  0.65887900  0.24251700  0.27834400  1
  O  O190  1  0.84112100  0.74251700  0.22165600  1
  O  O191  1  0.15887900  0.74251700  0.27834400  1
  O  O192  1  0.65887900  0.75748300  0.77834400  1
  O  O193  1  0.34112100  0.75748300  0.72165600  1
  O  O194  1  0.15887900  0.25748300  0.77834400  1
  O  O195  1  0.84112100  0.25748300  0.72165600  1
  O  O196  1  0.20947100  0.30883800  0.21668600  1
  O  O197  1  0.79052900  0.30883800  0.28331400  1
  O  O198  1  0.70947100  0.80883800  0.21668600  1
  O  O199  1  0.29052900  0.80883800  0.28331400  1
  O  O200  1  0.79052900  0.69116200  0.78331400  1
  O  O201  1  0.20947100  0.69116200  0.71668600  1
  O  O202  1  0.29052900  0.19116200  0.78331400  1
  O  O203  1  0.70947100  0.19116200  0.71668600  1
  C  C204  1  0.27058130  0.27807110  0.18956800  1
  C  C205  1  0.72941870  0.27807110  0.31043200  1
  C  C206  1  0.77058130  0.77807110  0.18956800  1
  C  C207  1  0.22941870  0.77807110  0.31043200  1
  C  C208  1  0.72941870  0.72192890  0.81043200  1
  C  C209  1  0.27058130  0.72192890  0.68956800  1
  C  C210  1  0.22941870  0.22192890  0.81043200  1
  C  C211  1  0.77058130  0.22192890  0.68956800  1
  C  C212  1  0.25726130  0.27885110  0.11767800  1
  C  C213  1  0.74273870  0.27885110  0.38232200  1
  C  C214  1  0.75726130  0.77885110  0.11767800  1
  C  C215  1  0.24273870  0.77885110  0.38232200  1
  C  C216  1  0.74273870  0.72114890  0.88232200  1
  C  C217  1  0.25726130  0.72114890  0.61767800  1
  C  C218  1  0.24273870  0.22114890  0.88232200  1
  C  C219  1  0.75726130  0.22114890  0.61767800  1
  C  C220  1  0.30015130  0.22677110  0.08586800  1
  C  C221  1  0.69984870  0.22677110  0.41413200  1
  C  C222  1  0.80015130  0.72677110  0.08586800  1
  C  C223  1  0.19984870  0.72677110  0.41413200  1
  C  C224  1  0.69984870  0.77322890  0.91413200  1
  C  C225  1  0.30015130  0.77322890  0.58586800  1
  C  C226  1  0.19984870  0.27322890  0.91413200  1
  C  C227  1  0.80015130  0.27322890  0.58586800  1
  H  H228  1  0.34287000  0.19249000  0.10952000  1
  H  H229  1  0.65713000  0.19249000  0.39048000  1
  H  H230  1  0.84287000  0.69249000  0.10952000  1
  H  H231  1  0.15713000  0.69249000  0.39048000  1
  H  H232  1  0.65713000  0.80751000  0.89048000  1
  H  H233  1  0.34287000  0.80751000  0.60952000  1
  H  H234  1  0.15713000  0.30751000  0.89048000  1
  H  H235  1  0.84287000  0.30751000  0.60952000  1
  C  C236  1  0.19488140  0.33161120  0.08292900  1
  C  C237  1  0.80511860  0.33161120  0.41707100  1
  C  C238  1  0.69488140  0.83161120  0.08292900  1
  C  C239  1  0.30511860  0.83161120  0.41707100  1
  C  C240  1  0.80511860  0.66838880  0.91707100  1
  C  C241  1  0.19488140  0.66838880  0.58292900  1
  C  C242  1  0.30511860  0.16838880  0.91707100  1
  C  C243  1  0.69488140  0.16838880  0.58292900  1
  H  H244  1  0.16525000  0.36751000  0.10547000  1
  H  H245  1  0.83475000  0.36751000  0.39453000  1
  H  H246  1  0.66525000  0.86751000  0.10547000  1
  H  H247  1  0.33475000  0.86751000  0.39453000  1
  H  H248  1  0.83475000  0.63249000  0.89453000  1
  H  H249  1  0.16525000  0.63249000  0.60547000  1
  H  H250  1  0.33475000  0.13249000  0.89453000  1
  H  H251  1  0.66525000  0.13249000  0.60547000  1
  C  C252  1  0.17735140  0.33089120  0.01705900  1
  C  C253  1  0.82264860  0.33089120  0.48294100  1
  C  C254  1  0.67735140  0.83089120  0.01705900  1
  C  C255  1  0.32264860  0.83089120  0.48294100  1
  C  C256  1  0.82264860  0.66910880  0.98294100  1
  C  C257  1  0.17735140  0.66910880  0.51705900  1
  C  C258  1  0.32264860  0.16910880  0.98294100  1
  C  C259  1  0.67735140  0.16910880  0.51705900  1
  H  H260  1  0.13703000  0.36720000  0.99424000  1
  H  H261  1  0.86297000  0.36720000  0.50576000  1
  H  H262  1  0.63703000  0.86720000  0.99424000  1
  H  H263  1  0.36297000  0.86720000  0.50576000  1
  H  H264  1  0.86297000  0.63280000  0.00576000  1
  H  H265  1  0.13703000  0.63280000  0.49424000  1
  H  H266  1  0.36297000  0.13280000  0.00576000  1
  H  H267  1  0.63703000  0.13280000  0.49424000  1
  C  C268  1  0.21880130  0.27645110  0.98257200  1
  C  C269  1  0.78119870  0.27645110  0.51742800  1
  C  C270  1  0.71880130  0.77645110  0.98257200  1
  C  C271  1  0.28119870  0.77645110  0.51742800  1
  C  C272  1  0.78119870  0.72354890  0.01742800  1
  C  C273  1  0.21880130  0.72354890  0.48257200  1
  C  C274  1  0.28119870  0.22354890  0.01742800  1
  C  C275  1  0.71880130  0.22354890  0.48257200  1
