# generated using pymatgen
data_FeHC6O7
_symmetry_space_group_name_H-M   'P 1'
_cell_length_a   26.00105000
_cell_length_b   26.00100000
_cell_length_c   6.86071200
_cell_angle_alpha   90.00000000
_cell_angle_beta   90.00000000
_cell_angle_gamma   120.00000000
_symmetry_Int_Tables_number   1
_chemical_formula_structural   FeHC6O7
_chemical_formula_sum   'Fe18 H18 C108 O126'
_cell_volume   4016.80508581
_cell_formula_units_Z   18
loop_
 _symmetry_equiv_pos_site_id
 _symmetry_equiv_pos_as_xyz
  1  'x, y, z'
loop_
 _atom_site_type_symbol
 _atom_site_label
 _atom_site_symmetry_multiplicity
 _atom_site_fract_x
 _atom_site_fract_y
 _atom_site_fract_z
 _atom_site_occupancy
  Fe  Fe0  1  0.28111190  0.98038800  0.19066000  1
  Fe  Fe1  1  0.01961200  0.30072390  0.19066000  1
  Fe  Fe2  1  0.69927610  0.71888810  0.19066000  1
  Fe  Fe3  1  0.94777857  0.31372133  0.52399333  1
  Fe  Fe4  1  0.68627867  0.63405723  0.52399333  1
  Fe  Fe5  1  0.36594277  0.05222143  0.52399333  1
  Fe  Fe6  1  0.61444523  0.64705467  0.85732667  1
  Fe  Fe7  1  0.35294533  0.96739057  0.85732667  1
  Fe  Fe8  1  0.03260943  0.38555477  0.85732667  1
  Fe  Fe9  1  0.71888810  0.01961200  0.80934000  1
  Fe  Fe10  1  0.98038800  0.69927610  0.80934000  1
  Fe  Fe11  1  0.30072390  0.28111190  0.80934000  1
  Fe  Fe12  1  0.05222143  0.68627867  0.47600667  1
  Fe  Fe13  1  0.31372133  0.36594277  0.47600667  1
  Fe  Fe14  1  0.63405723  0.94777857  0.47600667  1
  Fe  Fe15  1  0.38555477  0.35294533  0.14267333  1
  Fe  Fe16  1  0.64705467  0.03260943  0.14267333  1
  Fe  Fe17  1  0.96739057  0.61444523  0.14267333  1
  O  O18  1  0.34114310  0.04013320  0.98118900  1
  O  O19  1  0.95986680  0.30100990  0.98118900  1
  O  O20  1  0.69899010  0.65885690  0.98118900  1
  O  O21  1  0.00780977  0.37346653  0.31452233  1
  O  O22  1  0.62653347  0.63434323  0.31452233  1
  O  O23  1  0.36565677  0.99219023  0.31452233  1
  O  O24  1  0.67447643  0.70679987  0.64785567  1
  O  O25  1  0.29320013  0.96767657  0.64785567  1
  O  O26  1  0.03232343  0.32552357  0.64785567  1
  O  O27  1  0.65885690  0.95986680  0.01881100  1
  O  O28  1  0.04013320  0.69899010  0.01881100  1
  O  O29  1  0.30100990  0.34114310  0.01881100  1
  O  O30  1  0.99219023  0.62653347  0.68547767  1
  O  O31  1  0.37346653  0.36565677  0.68547767  1
  O  O32  1  0.63434323  0.00780977  0.68547767  1
  O  O33  1  0.32552357  0.29320013  0.35214433  1
  O  O34  1  0.70679987  0.03232343  0.35214433  1
  O  O35  1  0.96767657  0.67447643  0.35214433  1
  O  O36  1  0.36336330  0.10718350  0.73328900  1
  O  O37  1  0.89281650  0.25617980  0.73328900  1
  O  O38  1  0.74382020  0.63663670  0.73328900  1
  O  O39  1  0.03002997  0.44051683  0.06662233  1
  O  O40  1  0.55948317  0.58951313  0.06662233  1
  O  O41  1  0.41048687  0.96997003  0.06662233  1
  O  O42  1  0.69669663  0.77385017  0.39995567  1
  O  O43  1  0.22614983  0.92284647  0.39995567  1
  O  O44  1  0.07715353  0.30330337  0.39995567  1
  O  O45  1  0.63663670  0.89281650  0.26671100  1
  O  O46  1  0.10718350  0.74382020  0.26671100  1
  O  O47  1  0.25617980  0.36336330  0.26671100  1
  O  O48  1  0.96997003  0.55948317  0.93337767  1
  O  O49  1  0.44051683  0.41048687  0.93337767  1
  O  O50  1  0.58951313  0.03002997  0.93337767  1
  O  O51  1  0.30330337  0.22614983  0.60004433  1
  O  O52  1  0.77385017  0.07715353  0.60004433  1
  O  O53  1  0.92284647  0.69669663  0.60004433  1
  O  O54  1  0.31334000  0.06256310  0.32551100  1
  O  O55  1  0.93743690  0.25077690  0.32551100  1
  O  O56  1  0.74922310  0.68666000  0.32551100  1
  O  O57  1  0.98000667  0.39589643  0.65884433  1
  O  O58  1  0.60410357  0.58411023  0.65884433  1
  O  O59  1  0.41588977  0.01999333  0.65884433  1
  O  O60  1  0.64667333  0.72922977  0.99217767  1
  O  O61  1  0.27077023  0.91744357  0.99217767  1
  O  O62  1  0.08255643  0.35332667  0.99217767  1
  O  O63  1  0.68666000  0.93743690  0.67448900  1
  O  O64  1  0.06256310  0.74922310  0.67448900  1
  O  O65  1  0.25077690  0.31334000  0.67448900  1
  O  O66  1  0.01999333  0.60410357  0.34115567  1
  O  O67  1  0.39589643  0.41588977  0.34115567  1
  O  O68  1  0.58411023  0.98000667  0.34115567  1
  O  O69  1  0.35332667  0.27077023  0.00782233  1
  O  O70  1  0.72922977  0.08255643  0.00782233  1
  O  O71  1  0.91744357  0.64667333  0.00782233  1
  C  C72  1  0.35060290  0.08861280  0.91041000  1
  C  C73  1  0.91138720  0.26199010  0.91041000  1
  C  C74  1  0.73800990  0.64939710  0.91041000  1
  C  C75  1  0.01726957  0.42194613  0.24374333  1
  C  C76  1  0.57805387  0.59532343  0.24374333  1
  C  C77  1  0.40467657  0.98273043  0.24374333  1
  C  C78  1  0.68393623  0.75527947  0.57707667  1
  C  C79  1  0.24472053  0.92865677  0.57707667  1
  C  C80  1  0.07134323  0.31606377  0.57707667  1
  C  C81  1  0.64939710  0.91138720  0.08959000  1
  C  C82  1  0.08861280  0.73800990  0.08959000  1
  C  C83  1  0.26199010  0.35060290  0.08959000  1
  C  C84  1  0.98273043  0.57805387  0.75625667  1
  C  C85  1  0.42194613  0.40467657  0.75625667  1
  C  C86  1  0.59532343  0.01726957  0.75625667  1
  C  C87  1  0.31606377  0.24472053  0.42292333  1
  C  C88  1  0.75527947  0.07134323  0.42292333  1
  C  C89  1  0.92865677  0.68393623  0.42292333  1
  C  C90  1  0.34126310  0.12973290  0.04249000  1
  C  C91  1  0.87026710  0.21153020  0.04249000  1
  C  C92  1  0.78846980  0.65873690  0.04249000  1
  C  C93  1  0.00792977  0.46306623  0.37582333  1
  C  C94  1  0.53693377  0.54486353  0.37582333  1
  C  C95  1  0.45513647  0.99207023  0.37582333  1
  C  C96  1  0.67459643  0.79639957  0.70915667  1
  C  C97  1  0.20360043  0.87819687  0.70915667  1
  C  C98  1  0.12180313  0.32540357  0.70915667  1
  C  C99  1  0.65873690  0.87026710  0.95751000  1
  C  C100  1  0.12973290  0.78846980  0.95751000  1
  C  C101  1  0.21153020  0.34126310  0.95751000  1
  C  C102  1  0.99207023  0.53693377  0.62417667  1
  C  C103  1  0.46306623  0.45513647  0.62417667  1
  C  C104  1  0.54486353  0.00792977  0.62417667  1
  C  C105  1  0.32540357  0.20360043  0.29084333  1
  C  C106  1  0.79639957  0.12180313  0.29084333  1
  C  C107  1  0.87819687  0.67459643  0.29084333  1
  C  C108  1  0.32377260  0.11247270  0.23729000  1
  C  C109  1  0.88752730  0.21129990  0.23729000  1
  C  C110  1  0.78870010  0.67622740  0.23729000  1
  C  C111  1  0.99043927  0.44580603  0.57062333  1
  C  C112  1  0.55419397  0.54463323  0.57062333  1
  C  C113  1  0.45536677  0.00956073  0.57062333  1
  C  C114  1  0.65710593  0.77913937  0.90395667  1
  C  C115  1  0.22086063  0.87796657  0.90395667  1
  C  C116  1  0.12203343  0.34289407  0.90395667  1
  C  C117  1  0.67622740  0.88752730  0.76271000  1
  C  C118  1  0.11247270  0.78870010  0.76271000  1
  C  C119  1  0.21129990  0.32377260  0.76271000  1
  C  C120  1  0.00956073  0.55419397  0.42937667  1
  C  C121  1  0.44580603  0.45536677  0.42937667  1
  C  C122  1  0.54463323  0.99043927  0.42937667  1
  C  C123  1  0.34289407  0.22086063  0.09604333  1
  C  C124  1  0.77913937  0.12203343  0.09604333  1
  C  C125  1  0.87796657  0.65710593  0.09604333  1
  C  C126  1  0.31525300  0.15049300  0.35819000  1
  C  C127  1  0.84950700  0.16476000  0.35819000  1
  C  C128  1  0.83524000  0.68474700  0.35819000  1
  C  C129  1  0.98191967  0.48382633  0.69152333  1
  C  C130  1  0.51617367  0.49809333  0.69152333  1
  C  C131  1  0.50190667  0.01808033  0.69152333  1
  C  C132  1  0.64858633  0.81715967  0.02485667  1
  C  C133  1  0.18284033  0.83142667  0.02485667  1
  C  C134  1  0.16857333  0.35141367  0.02485667  1
  C  C135  1  0.68474700  0.84950700  0.64181000  1
  C  C136  1  0.15049300  0.83524000  0.64181000  1
  C  C137  1  0.16476000  0.31525300  0.64181000  1
  C  C138  1  0.01808033  0.51617367  0.30847667  1
  C  C139  1  0.48382633  0.50190667  0.30847667  1
  C  C140  1  0.49809333  0.98191967  0.30847667  1
  C  C141  1  0.35141367  0.18284033  0.97514333  1
  C  C142  1  0.81715967  0.16857333  0.97514333  1
  C  C143  1  0.83142667  0.64858633  0.97514333  1
  H  H144  1  0.30615000  0.13795000  0.50461900  1
  H  H145  1  0.86205000  0.16820000  0.50461900  1
  H  H146  1  0.83180000  0.69385000  0.50461900  1
  H  H147  1  0.97281667  0.47128333  0.83795233  1
  H  H148  1  0.52871667  0.50153333  0.83795233  1
  H  H149  1  0.49846667  0.02718333  0.83795233  1
  H  H150  1  0.63948333  0.80461667  0.17128567  1
  H  H151  1  0.19538333  0.83486667  0.17128567  1
  H  H152  1  0.16513333  0.36051667  0.17128567  1
  H  H153  1  0.69385000  0.86205000  0.49538100  1
  H  H154  1  0.13795000  0.83180000  0.49538100  1
  H  H155  1  0.16820000  0.30615000  0.49538100  1
  H  H156  1  0.02718333  0.52871667  0.16204767  1
  H  H157  1  0.47128333  0.49846667  0.16204767  1
  H  H158  1  0.50153333  0.97281667  0.16204767  1
  H  H159  1  0.36051667  0.19538333  0.82871433  1
  H  H160  1  0.80461667  0.16513333  0.82871433  1
  H  H161  1  0.83486667  0.63948333  0.82871433  1
