# generated using pymatgen
data_CuH26C34(N2O)2
_symmetry_space_group_name_H-M   'P 1'
_cell_length_a   13.08830000
_cell_length_b   13.08830000
_cell_length_c   26.79390000
_cell_angle_alpha   90.00000000
_cell_angle_beta   90.00000000
_cell_angle_gamma   90.00000000
_symmetry_Int_Tables_number   1
_chemical_formula_structural   CuH26C34(N2O)2
_chemical_formula_sum   'Cu4 H104 C136 N16 O8'
_cell_volume   4589.89144471
_cell_formula_units_Z   4
loop_
 _symmetry_equiv_pos_site_id
 _symmetry_equiv_pos_as_xyz
  1  'x, y, z'
loop_
 _atom_site_type_symbol
 _atom_site_label
 _atom_site_symmetry_multiplicity
 _atom_site_fract_x
 _atom_site_fract_y
 _atom_site_fract_z
 _atom_site_occupancy
  Cu  Cu0  1  0.50000000  0.00000000  0.28255000  1.0
  Cu  Cu1  1  0.00000000  0.50000000  0.78255000  1.0
  Cu  Cu2  1  0.50000000  0.00000000  0.71745000  1.0
  Cu  Cu3  1  0.00000000  0.50000000  0.21745000  1.0
  H  H4  1  0.41410000  0.58680000  0.43470000  1.0
  H  H5  1  0.48920000  0.68180000  0.38340000  1.0
  H  H6  1  0.52290000  0.78170000  0.31430000  1.0
  H  H7  1  0.34430000  0.83850000  0.51130000  1.0
  H  H8  1  0.32950000  0.91230000  0.44100000  1.0
  H  H9  1  0.36900000  0.00830000  0.37120000  1.0
  H  H10  1  0.11000000  0.59290000  0.69930000  1.0
  H  H11  1  0.29320000  0.74200000  0.57810000  1.0
  H  H12  1  0.10630000  0.31020000  0.74640000  1.0
  H  H13  1  0.18220000  0.63120000  0.61660000  1.0
  H  H14  1  0.28950000  0.62750000  0.64280000  1.0
  H  H15  1  0.21440000  0.26260000  0.68460000  1.0
  H  H16  1  0.27900000  0.38150000  0.62940000  1.0
  H  H17  1  0.58590000  0.41320000  0.43470000  1.0
  H  H18  1  0.51080000  0.31820000  0.38340000  1.0
  H  H19  1  0.47710000  0.21830000  0.31430000  1.0
  H  H20  1  0.65570000  0.16150000  0.51130000  1.0
  H  H21  1  0.67050000  0.08770000  0.44100000  1.0
  H  H22  1  0.63100000  0.99170000  0.37120000  1.0
  H  H23  1  0.89000000  0.40710000  0.69930000  1.0
  H  H24  1  0.70680000  0.25800000  0.57810000  1.0
  H  H25  1  0.89370000  0.68980000  0.74640000  1.0
  H  H26  1  0.81780000  0.36880000  0.61660000  1.0
  H  H27  1  0.71050000  0.37250000  0.64280000  1.0
  H  H28  1  0.78560000  0.73740000  0.68460000  1.0
  H  H29  1  0.72100000  0.61850000  0.62940000  1.0
  H  H30  1  0.41320000  0.41410000  0.93470000  1.0
  H  H31  1  0.31820000  0.48920000  0.88340000  1.0
  H  H32  1  0.21830000  0.52290000  0.81430000  1.0
  H  H33  1  0.16150000  0.34430000  0.01130000  1.0
  H  H34  1  0.08770000  0.32950000  0.94100000  1.0
  H  H35  1  0.99170000  0.36900000  0.87120000  1.0
  H  H36  1  0.40710000  0.11000000  0.19930000  1.0
  H  H37  1  0.25800000  0.29320000  0.07810000  1.0
  H  H38  1  0.68980000  0.10630000  0.24640000  1.0
  H  H39  1  0.36880000  0.18220000  0.11660000  1.0
  H  H40  1  0.37250000  0.28950000  0.14280000  1.0
  H  H41  1  0.73740000  0.21440000  0.18460000  1.0
  H  H42  1  0.61850000  0.27900000  0.12940000  1.0
  H  H43  1  0.58680000  0.58590000  0.93470000  1.0
  H  H44  1  0.68180000  0.51080000  0.88340000  1.0
  H  H45  1  0.78170000  0.47710000  0.81430000  1.0
  H  H46  1  0.83850000  0.65570000  0.01130000  1.0
  H  H47  1  0.91230000  0.67050000  0.94100000  1.0
  H  H48  1  0.00830000  0.63100000  0.87120000  1.0
  H  H49  1  0.59290000  0.89000000  0.19930000  1.0
  H  H50  1  0.74200000  0.70680000  0.07810000  1.0
  H  H51  1  0.31020000  0.89370000  0.24640000  1.0
  H  H52  1  0.63120000  0.81780000  0.11660000  1.0
  H  H53  1  0.62750000  0.71050000  0.14280000  1.0
  H  H54  1  0.26260000  0.78560000  0.18460000  1.0
  H  H55  1  0.38150000  0.72100000  0.12940000  1.0
  H  H56  1  0.58590000  0.58680000  0.56530000  1.0
  H  H57  1  0.51080000  0.68180000  0.61660000  1.0
  H  H58  1  0.47710000  0.78170000  0.68570000  1.0
  H  H59  1  0.65570000  0.83850000  0.48870000  1.0
  H  H60  1  0.67050000  0.91230000  0.55900000  1.0
  H  H61  1  0.63100000  0.00830000  0.62880000  1.0
  H  H62  1  0.89000000  0.59290000  0.30070000  1.0
  H  H63  1  0.70680000  0.74200000  0.42190000  1.0
  H  H64  1  0.89370000  0.31020000  0.25360000  1.0
  H  H65  1  0.81780000  0.63120000  0.38340000  1.0
  H  H66  1  0.71050000  0.62750000  0.35720000  1.0
  H  H67  1  0.78560000  0.26260000  0.31540000  1.0
  H  H68  1  0.72100000  0.38150000  0.37060000  1.0
  H  H69  1  0.41410000  0.41320000  0.56530000  1.0
  H  H70  1  0.48920000  0.31820000  0.61660000  1.0
  H  H71  1  0.52290000  0.21830000  0.68570000  1.0
  H  H72  1  0.34430000  0.16150000  0.48870000  1.0
  H  H73  1  0.32950000  0.08770000  0.55900000  1.0
  H  H74  1  0.36900000  0.99170000  0.62880000  1.0
  H  H75  1  0.11000000  0.40710000  0.30070000  1.0
  H  H76  1  0.29320000  0.25800000  0.42190000  1.0
  H  H77  1  0.10630000  0.68980000  0.25360000  1.0
  H  H78  1  0.18220000  0.36880000  0.38340000  1.0
  H  H79  1  0.28950000  0.37250000  0.35720000  1.0
  H  H80  1  0.21440000  0.73740000  0.31540000  1.0
  H  H81  1  0.27900000  0.61850000  0.37060000  1.0
  H  H82  1  0.58680000  0.41410000  0.06530000  1.0
  H  H83  1  0.68180000  0.48920000  0.11660000  1.0
  H  H84  1  0.78170000  0.52290000  0.18570000  1.0
  H  H85  1  0.83850000  0.34430000  0.98870000  1.0
  H  H86  1  0.91230000  0.32950000  0.05900000  1.0
  H  H87  1  0.00830000  0.36900000  0.12880000  1.0
  H  H88  1  0.59290000  0.11000000  0.80070000  1.0
  H  H89  1  0.74200000  0.29320000  0.92190000  1.0
  H  H90  1  0.31020000  0.10630000  0.75360000  1.0
  H  H91  1  0.63120000  0.18220000  0.88340000  1.0
  H  H92  1  0.62750000  0.28950000  0.85720000  1.0
  H  H93  1  0.26260000  0.21440000  0.81540000  1.0
  H  H94  1  0.38150000  0.27900000  0.87060000  1.0
  H  H95  1  0.41320000  0.58590000  0.06530000  1.0
  H  H96  1  0.31820000  0.51080000  0.11660000  1.0
  H  H97  1  0.21830000  0.47710000  0.18570000  1.0
  H  H98  1  0.16150000  0.65570000  0.98870000  1.0
  H  H99  1  0.08770000  0.67050000  0.05900000  1.0
  H  H100  1  0.99170000  0.63100000  0.12880000  1.0
  H  H101  1  0.40710000  0.89000000  0.80070000  1.0
  H  H102  1  0.25800000  0.70680000  0.92190000  1.0
  H  H103  1  0.68980000  0.89370000  0.75360000  1.0
  H  H104  1  0.36880000  0.81780000  0.88340000  1.0
  H  H105  1  0.37250000  0.71050000  0.85720000  1.0
  H  H106  1  0.73740000  0.78560000  0.81540000  1.0
  H  H107  1  0.61850000  0.72100000  0.87060000  1.0
  C  C108  1  0.38590000  0.61760000  0.46281000  1.0
  C  C109  1  0.35100000  0.55570000  0.50227000  1.0
  C  C110  1  0.40620000  0.78680000  0.42098000  1.0
  C  C111  1  0.37950000  0.72290000  0.46472000  1.0
  C  C112  1  0.46400000  0.74820000  0.38184000  1.0
  C  C113  1  0.48440000  0.80870000  0.34031000  1.0
  C  C114  1  0.31600000  0.60520000  0.54613000  1.0
  C  C115  1  0.34590000  0.76770000  0.50886000  1.0
  C  C116  1  0.37010000  0.88410000  0.41606000  1.0
  C  C117  1  0.39370000  0.94180000  0.37360000  1.0
  C  C118  1  0.13350000  0.52610000  0.69648000  1.0
  C  C119  1  0.20100000  0.50350000  0.65944000  1.0
  C  C120  1  0.31490000  0.71000000  0.54902000  1.0
  C  C121  1  0.13020000  0.35930000  0.72410000  1.0
  C  C122  1  0.23840000  0.58680000  0.62570000  1.0
  C  C123  1  0.19530000  0.33080000  0.68740000  1.0
  C  C124  1  0.23340000  0.40070000  0.65440000  1.0
  C  C125  1  0.61410000  0.38240000  0.46281000  1.0
  C  C126  1  0.64900000  0.44430000  0.50227000  1.0
  C  C127  1  0.59380000  0.21320000  0.42098000  1.0
  C  C128  1  0.62050000  0.27710000  0.46472000  1.0
  C  C129  1  0.53600000  0.25180000  0.38184000  1.0
  C  C130  1  0.51560000  0.19130000  0.34031000  1.0
  C  C131  1  0.68400000  0.39480000  0.54613000  1.0
  C  C132  1  0.65410000  0.23230000  0.50886000  1.0
  C  C133  1  0.62990000  0.11590000  0.41606000  1.0
  C  C134  1  0.60630000  0.05820000  0.37360000  1.0
  C  C135  1  0.86650000  0.47390000  0.69648000  1.0
  C  C136  1  0.79900000  0.49650000  0.65944000  1.0
  C  C137  1  0.68510000  0.29000000  0.54902000  1.0
  C  C138  1  0.86980000  0.64070000  0.72410000  1.0
  C  C139  1  0.76160000  0.41320000  0.62570000  1.0
  C  C140  1  0.80470000  0.66920000  0.68740000  1.0
  C  C141  1  0.76660000  0.59930000  0.65440000  1.0
  C  C142  1  0.38240000  0.38590000  0.96281000  1.0
  C  C143  1  0.44430000  0.35100000  0.00227000  1.0
  C  C144  1  0.21320000  0.40620000  0.92098000  1.0
  C  C145  1  0.27710000  0.37950000  0.96472000  1.0
  C  C146  1  0.25180000  0.46400000  0.88184000  1.0
  C  C147  1  0.19130000  0.48440000  0.84031000  1.0
  C  C148  1  0.39480000  0.31600000  0.04613000  1.0
  C  C149  1  0.23230000  0.34590000  0.00886000  1.0
  C  C150  1  0.11590000  0.37010000  0.91606000  1.0
  C  C151  1  0.05820000  0.39370000  0.87360000  1.0
  C  C152  1  0.47390000  0.13350000  0.19648000  1.0
  C  C153  1  0.49650000  0.20100000  0.15944000  1.0
  C  C154  1  0.29000000  0.31490000  0.04902000  1.0
  C  C155  1  0.64070000  0.13020000  0.22410000  1.0
  C  C156  1  0.41320000  0.23840000  0.12570000  1.0
  C  C157  1  0.66920000  0.19530000  0.18740000  1.0
  C  C158  1  0.59930000  0.23340000  0.15440000  1.0
  C  C159  1  0.61760000  0.61410000  0.96281000  1.0
  C  C160  1  0.55570000  0.64900000  0.00227000  1.0
  C  C161  1  0.78680000  0.59380000  0.92098000  1.0
  C  C162  1  0.72290000  0.62050000  0.96472000  1.0
  C  C163  1  0.74820000  0.53600000  0.88184000  1.0
  C  C164  1  0.80870000  0.51560000  0.84031000  1.0
  C  C165  1  0.60520000  0.68400000  0.04613000  1.0
  C  C166  1  0.76770000  0.65410000  0.00886000  1.0
  C  C167  1  0.88410000  0.62990000  0.91606000  1.0
  C  C168  1  0.94180000  0.60630000  0.87360000  1.0
  C  C169  1  0.52610000  0.86650000  0.19648000  1.0
  C  C170  1  0.50350000  0.79900000  0.15944000  1.0
  C  C171  1  0.71000000  0.68510000  0.04902000  1.0
  C  C172  1  0.35930000  0.86980000  0.22410000  1.0
  C  C173  1  0.58680000  0.76160000  0.12570000  1.0
  C  C174  1  0.33080000  0.80470000  0.18740000  1.0
  C  C175  1  0.40070000  0.76660000  0.15440000  1.0
  C  C176  1  0.61410000  0.61760000  0.53719000  1.0
  C  C177  1  0.64900000  0.55570000  0.49773000  1.0
  C  C178  1  0.59380000  0.78680000  0.57902000  1.0
  C  C179  1  0.62050000  0.72290000  0.53528000  1.0
  C  C180  1  0.53600000  0.74820000  0.61816000  1.0
  C  C181  1  0.51560000  0.80870000  0.65969000  1.0
  C  C182  1  0.68400000  0.60520000  0.45387000  1.0
  C  C183  1  0.65410000  0.76770000  0.49114000  1.0
  C  C184  1  0.62990000  0.88410000  0.58394000  1.0
  C  C185  1  0.60630000  0.94180000  0.62640000  1.0
  C  C186  1  0.86650000  0.52610000  0.30352000  1.0
  C  C187  1  0.79900000  0.50350000  0.34056000  1.0
  C  C188  1  0.68510000  0.71000000  0.45098000  1.0
  C  C189  1  0.86980000  0.35930000  0.27590000  1.0
  C  C190  1  0.76160000  0.58680000  0.37430000  1.0
  C  C191  1  0.80470000  0.33080000  0.31260000  1.0
  C  C192  1  0.76660000  0.40070000  0.34560000  1.0
  C  C193  1  0.38590000  0.38240000  0.53719000  1.0
  C  C194  1  0.35100000  0.44430000  0.49773000  1.0
  C  C195  1  0.40620000  0.21320000  0.57902000  1.0
  C  C196  1  0.37950000  0.27710000  0.53528000  1.0
  C  C197  1  0.46400000  0.25180000  0.61816000  1.0
  C  C198  1  0.48440000  0.19130000  0.65969000  1.0
  C  C199  1  0.31600000  0.39480000  0.45387000  1.0
  C  C200  1  0.34590000  0.23230000  0.49114000  1.0
  C  C201  1  0.37010000  0.11590000  0.58394000  1.0
  C  C202  1  0.39370000  0.05820000  0.62640000  1.0
  C  C203  1  0.13350000  0.47390000  0.30352000  1.0
  C  C204  1  0.20100000  0.49650000  0.34056000  1.0
  C  C205  1  0.31490000  0.29000000  0.45098000  1.0
  C  C206  1  0.13020000  0.64070000  0.27590000  1.0
  C  C207  1  0.23840000  0.41320000  0.37430000  1.0
  C  C208  1  0.19530000  0.66920000  0.31260000  1.0
  C  C209  1  0.23340000  0.59930000  0.34560000  1.0
  C  C210  1  0.61760000  0.38590000  0.03719000  1.0
  C  C211  1  0.55570000  0.35100000  0.99773000  1.0
  C  C212  1  0.78680000  0.40620000  0.07902000  1.0
  C  C213  1  0.72290000  0.37950000  0.03528000  1.0
  C  C214  1  0.74820000  0.46400000  0.11816000  1.0
  C  C215  1  0.80870000  0.48440000  0.15969000  1.0
  C  C216  1  0.60520000  0.31600000  0.95387000  1.0
  C  C217  1  0.76770000  0.34590000  0.99114000  1.0
  C  C218  1  0.88410000  0.37010000  0.08394000  1.0
  C  C219  1  0.94180000  0.39370000  0.12640000  1.0
  C  C220  1  0.52610000  0.13350000  0.80352000  1.0
  C  C221  1  0.50350000  0.20100000  0.84056000  1.0
  C  C222  1  0.71000000  0.31490000  0.95098000  1.0
  C  C223  1  0.35930000  0.13020000  0.77590000  1.0
  C  C224  1  0.58680000  0.23840000  0.87430000  1.0
  C  C225  1  0.33080000  0.19530000  0.81260000  1.0
  C  C226  1  0.40070000  0.23340000  0.84560000  1.0
  C  C227  1  0.38240000  0.61410000  0.03719000  1.0
  C  C228  1  0.44430000  0.64900000  0.99773000  1.0
  C  C229  1  0.21320000  0.59380000  0.07902000  1.0
  C  C230  1  0.27710000  0.62050000  0.03528000  1.0
  C  C231  1  0.25180000  0.53600000  0.11816000  1.0
  C  C232  1  0.19130000  0.51560000  0.15969000  1.0
  C  C233  1  0.39480000  0.68400000  0.95387000  1.0
  C  C234  1  0.23230000  0.65410000  0.99114000  1.0
  C  C235  1  0.11590000  0.62990000  0.08394000  1.0
  C  C236  1  0.05820000  0.60630000  0.12640000  1.0
  C  C237  1  0.47390000  0.86650000  0.80352000  1.0
  C  C238  1  0.49650000  0.79900000  0.84056000  1.0
  C  C239  1  0.29000000  0.68510000  0.95098000  1.0
  C  C240  1  0.64070000  0.86980000  0.77590000  1.0
  C  C241  1  0.41320000  0.76160000  0.87430000  1.0
  C  C242  1  0.66920000  0.80470000  0.81260000  1.0
  C  C243  1  0.59930000  0.76660000  0.84560000  1.0
  N  N244  1  0.44990000  0.90490000  0.33688000  1.0
  N  N245  1  0.09920000  0.45590000  0.72918000  1.0
  N  N246  1  0.55010000  0.09510000  0.33688000  1.0
  N  N247  1  0.90080000  0.54410000  0.72918000  1.0
  N  N248  1  0.09510000  0.44990000  0.83688000  1.0
  N  N249  1  0.54410000  0.09920000  0.22918000  1.0
  N  N250  1  0.90490000  0.55010000  0.83688000  1.0
  N  N251  1  0.45590000  0.90080000  0.22918000  1.0
  N  N252  1  0.55010000  0.90490000  0.66312000  1.0
  N  N253  1  0.90080000  0.45590000  0.27082000  1.0
  N  N254  1  0.44990000  0.09510000  0.66312000  1.0
  N  N255  1  0.09920000  0.54410000  0.27082000  1.0
  N  N256  1  0.90490000  0.44990000  0.16312000  1.0
  N  N257  1  0.45590000  0.09920000  0.77082000  1.0
  N  N258  1  0.09510000  0.55010000  0.16312000  1.0
  N  N259  1  0.54410000  0.90080000  0.77082000  1.0
  O  O260  1  0.28050000  0.54320000  0.58323000  1.0
  O  O261  1  0.71950000  0.45680000  0.58323000  1.0
  O  O262  1  0.45680000  0.28050000  0.08323000  1.0
  O  O263  1  0.54320000  0.71950000  0.08323000  1.0
  O  O264  1  0.71950000  0.54320000  0.41677000  1.0
  O  O265  1  0.28050000  0.45680000  0.41677000  1.0
  O  O266  1  0.54320000  0.28050000  0.91677000  1.0
  O  O267  1  0.45680000  0.71950000  0.91677000  1.0
