# generated using pymatgen
data_ZnH12C24(NO3)2
_symmetry_space_group_name_H-M   'P 1'
_cell_length_a   12.97500000
_cell_length_b   13.06000000
_cell_length_c   22.38200000
_cell_angle_alpha   95.77600000
_cell_angle_beta   92.00400000
_cell_angle_gamma   112.67800000
_symmetry_Int_Tables_number   1
_chemical_formula_structural   ZnH12C24(NO3)2
_chemical_formula_sum   'Zn4 H48 C96 N8 O24'
_cell_volume   3470.45220688
_cell_formula_units_Z   4
loop_
 _symmetry_equiv_pos_site_id
 _symmetry_equiv_pos_as_xyz
  1  'x, y, z'
loop_
 _atom_site_type_symbol
 _atom_site_label
 _atom_site_symmetry_multiplicity
 _atom_site_fract_x
 _atom_site_fract_y
 _atom_site_fract_z
 _atom_site_occupancy
  Zn  Zn0  1  0.86002000  0.76082000  0.29949000  1.0
  Zn  Zn1  1  0.85366000  0.71572000  0.16722000  1.0
  Zn  Zn2  1  0.13998000  0.23918000  0.70051000  1.0
  Zn  Zn3  1  0.14634000  0.28428000  0.83278000  1.0
  H  H4  1  0.71640000  0.63660000  0.38950000  1.0
  H  H5  1  0.71060000  0.63460000  0.49340000  1.0
  H  H6  1  0.01220000  0.89600000  0.51390000  1.0
  H  H7  1  0.00550000  0.89470000  0.41000000  1.0
  H  H8  1  0.84040000  0.99780000  0.70010000  1.0
  H  H9  1  0.84160000  0.99360000  0.80520000  1.0
  H  H10  1  0.87140000  0.50540000  0.76830000  1.0
  H  H11  1  0.87770000  0.51370000  0.66400000  1.0
  H  H12  1  0.19840000  0.79700000  0.33940000  1.0
  H  H13  1  0.36990000  0.78200000  0.35060000  1.0
  H  H14  1  0.52780000  0.74730000  0.30430000  1.0
  H  H15  1  0.49980000  0.64470000  0.12500000  1.0
  H  H16  1  0.32510000  0.65010000  0.11530000  1.0
  H  H17  1  0.17470000  0.70180000  0.16030000  1.0
  H  H18  1  0.86280000  0.10060000  0.31270000  1.0
  H  H19  1  0.83960000  0.27450000  0.35280000  1.0
  H  H20  1  0.82380000  0.44050000  0.33630000  1.0
  H  H21  1  0.84040000  0.37380000  0.15690000  1.0
  H  H22  1  0.85900000  0.19710000  0.11680000  1.0
  H  H23  1  0.87760000  0.03300000  0.13320000  1.0
  H  H24  1  0.70970000  0.59930000  0.05470000  1.0
  H  H25  1  0.70540000  0.60840000  0.95190000  1.0
  H  H26  1  0.00690000  0.86750000  0.97870000  1.0
  H  H27  1  0.00270000  0.85190000  0.08150000  1.0
  H  H28  1  0.28360000  0.36340000  0.61050000  1.0
  H  H29  1  0.28940000  0.36540000  0.50660000  1.0
  H  H30  1  0.98780000  0.10400000  0.48610000  1.0
  H  H31  1  0.99450000  0.10530000  0.59000000  1.0
  H  H32  1  0.15960000  0.00220000  0.29990000  1.0
  H  H33  1  0.15840000  0.00640000  0.19480000  1.0
  H  H34  1  0.12860000  0.49460000  0.23170000  1.0
  H  H35  1  0.12230000  0.48630000  0.33600000  1.0
  H  H36  1  0.80160000  0.20300000  0.66060000  1.0
  H  H37  1  0.63010000  0.21800000  0.64940000  1.0
  H  H38  1  0.47220000  0.25270000  0.69570000  1.0
  H  H39  1  0.50020000  0.35530000  0.87500000  1.0
  H  H40  1  0.67490000  0.34990000  0.88470000  1.0
  H  H41  1  0.82530000  0.29820000  0.83970000  1.0
  H  H42  1  0.13720000  0.89940000  0.68730000  1.0
  H  H43  1  0.16040000  0.72550000  0.64720000  1.0
  H  H44  1  0.17620000  0.55950000  0.66370000  1.0
  H  H45  1  0.15960000  0.62620000  0.84310000  1.0
  H  H46  1  0.14100000  0.80290000  0.88320000  1.0
  H  H47  1  0.12240000  0.96700000  0.86680000  1.0
  H  H48  1  0.29030000  0.40070000  0.94530000  1.0
  H  H49  1  0.29460000  0.39160000  0.04810000  1.0
  H  H50  1  0.99310000  0.13250000  0.02130000  1.0
  H  H51  1  0.99730000  0.14810000  0.91850000  1.0
  C  C52  1  0.88150000  0.94340000  0.23563000  1.0
  C  C53  1  0.06240000  0.76570000  0.24116000  1.0
  C  C54  1  0.82710000  0.53330000  0.23470000  1.0
  C  C55  1  0.64830000  0.70140000  0.22169000  1.0
  C  C56  1  0.77650000  0.69050000  0.41539000  1.0
  C  C57  1  0.77260000  0.68790000  0.47715000  1.0
  C  C58  1  0.86180000  0.76550000  0.51430000  1.0
  C  C59  1  0.95000000  0.84260000  0.48912000  1.0
  C  C60  1  0.94580000  0.84060000  0.42727000  1.0
  C  C61  1  0.85180000  0.85350000  0.61374000  1.0
  C  C62  1  0.85080000  0.84810000  0.67938000  1.0
  C  C63  1  0.84480000  0.93530000  0.71671000  1.0
  C  C64  1  0.84520000  0.93270000  0.77953000  1.0
  C  C65  1  0.85070000  0.84140000  0.80374000  1.0
  C  C66  1  0.85330000  0.84110000  0.86974000  1.0
  C  C67  1  0.86340000  0.65180000  0.85539000  1.0
  C  C68  1  0.86260000  0.65660000  0.78937000  1.0
  C  C69  1  0.86880000  0.56870000  0.75192000  1.0
  C  C70  1  0.87150000  0.57330000  0.68971000  1.0
  C  C71  1  0.86510000  0.66450000  0.66567000  1.0
  C  C72  1  0.87010000  0.66860000  0.60017000  1.0
  C  C73  1  0.85690000  0.75380000  0.70319000  1.0
  C  C74  1  0.85590000  0.75030000  0.76599000  1.0
  C  C75  1  0.17300000  0.75440000  0.24769000  1.0
  C  C76  1  0.23020000  0.77600000  0.30510000  1.0
  C  C77  1  0.33160000  0.76660000  0.31170000  1.0
  C  C78  1  0.37990000  0.73440000  0.26109000  1.0
  C  C79  1  0.48660000  0.72900000  0.26609000  1.0
  C  C80  1  0.53120000  0.69760000  0.21627000  1.0
  C  C81  1  0.46920000  0.66760000  0.15930000  1.0
  C  C82  1  0.36630000  0.67150000  0.15360000  1.0
  C  C83  1  0.31890000  0.70720000  0.20400000  1.0
  C  C84  1  0.21540000  0.71890000  0.19856000  1.0
  C  C85  1  0.87170000  0.05190000  0.22605000  1.0
  C  C86  1  0.86200000  0.12070000  0.27313000  1.0
  C  C87  1  0.85080000  0.22230000  0.26448000  1.0
  C  C88  1  0.84010000  0.29410000  0.31300000  1.0
  C  C89  1  0.83060000  0.39230000  0.30330000  1.0
  C  C90  1  0.83080000  0.42200000  0.24380000  1.0
  C  C91  1  0.84020000  0.35290000  0.19640000  1.0
  C  C92  1  0.84960000  0.25060000  0.20463000  1.0
  C  C93  1  0.85980000  0.17820000  0.15670000  1.0
  C  C94  1  0.87070000  0.08100000  0.16623000  1.0
  C  C95  1  0.77090000  0.65440000  0.03894000  1.0
  C  C96  1  0.76740000  0.65910000  0.97789000  1.0
  C  C97  1  0.85680000  0.73970000  0.95525000  1.0
  C  C98  1  0.94490000  0.81180000  0.99354000  1.0
  C  C99  1  0.94190000  0.80170000  0.05457000  1.0
  C  C100  1  0.11850000  0.05660000  0.76437000  1.0
  C  C101  1  0.93760000  0.23430000  0.75884000  1.0
  C  C102  1  0.17290000  0.46670000  0.76530000  1.0
  C  C103  1  0.35170000  0.29860000  0.77831000  1.0
  C  C104  1  0.22350000  0.30950000  0.58461000  1.0
  C  C105  1  0.22740000  0.31210000  0.52285000  1.0
  C  C106  1  0.13820000  0.23450000  0.48570000  1.0
  C  C107  1  0.05000000  0.15740000  0.51088000  1.0
  C  C108  1  0.05420000  0.15940000  0.57273000  1.0
  C  C109  1  0.14820000  0.14650000  0.38626000  1.0
  C  C110  1  0.14920000  0.15190000  0.32062000  1.0
  C  C111  1  0.15520000  0.06470000  0.28329000  1.0
  C  C112  1  0.15480000  0.06730000  0.22047000  1.0
  C  C113  1  0.14930000  0.15860000  0.19626000  1.0
  C  C114  1  0.14670000  0.15890000  0.13026000  1.0
  C  C115  1  0.13660000  0.34820000  0.14461000  1.0
  C  C116  1  0.13740000  0.34340000  0.21063000  1.0
  C  C117  1  0.13120000  0.43130000  0.24808000  1.0
  C  C118  1  0.12850000  0.42670000  0.31029000  1.0
  C  C119  1  0.13490000  0.33550000  0.33433000  1.0
  C  C120  1  0.12990000  0.33140000  0.39983000  1.0
  C  C121  1  0.14310000  0.24620000  0.29681000  1.0
  C  C122  1  0.14410000  0.24970000  0.23401000  1.0
  C  C123  1  0.82700000  0.24560000  0.75231000  1.0
  C  C124  1  0.76980000  0.22400000  0.69490000  1.0
  C  C125  1  0.66840000  0.23340000  0.68830000  1.0
  C  C126  1  0.62010000  0.26560000  0.73891000  1.0
  C  C127  1  0.51340000  0.27100000  0.73391000  1.0
  C  C128  1  0.46880000  0.30240000  0.78373000  1.0
  C  C129  1  0.53080000  0.33240000  0.84070000  1.0
  C  C130  1  0.63370000  0.32850000  0.84640000  1.0
  C  C131  1  0.68110000  0.29280000  0.79600000  1.0
  C  C132  1  0.78460000  0.28110000  0.80144000  1.0
  C  C133  1  0.12830000  0.94810000  0.77395000  1.0
  C  C134  1  0.13800000  0.87930000  0.72687000  1.0
  C  C135  1  0.14920000  0.77770000  0.73552000  1.0
  C  C136  1  0.15990000  0.70590000  0.68700000  1.0
  C  C137  1  0.16940000  0.60770000  0.69670000  1.0
  C  C138  1  0.16920000  0.57800000  0.75620000  1.0
  C  C139  1  0.15980000  0.64710000  0.80360000  1.0
  C  C140  1  0.15040000  0.74940000  0.79537000  1.0
  C  C141  1  0.14020000  0.82180000  0.84330000  1.0
  C  C142  1  0.12930000  0.91900000  0.83377000  1.0
  C  C143  1  0.22910000  0.34560000  0.96106000  1.0
  C  C144  1  0.23260000  0.34090000  0.02211000  1.0
  C  C145  1  0.14320000  0.26030000  0.04475000  1.0
  C  C146  1  0.05510000  0.18820000  0.00646000  1.0
  C  C147  1  0.05810000  0.19830000  0.94543000  1.0
  N  N148  1  0.86100000  0.76540000  0.39080000  1.0
  N  N149  1  0.86300000  0.76360000  0.57840000  1.0
  N  N150  1  0.85720000  0.74420000  0.89097000  1.0
  N  N151  1  0.85630000  0.72370000  0.07697000  1.0
  N  N152  1  0.13900000  0.23460000  0.60920000  1.0
  N  N153  1  0.13700000  0.23640000  0.42160000  1.0
  N  N154  1  0.14280000  0.25580000  0.10903000  1.0
  N  N155  1  0.14370000  0.27630000  0.92303000  1.0
  O  O156  1  0.88880000  0.92270000  0.28927000  1.0
  O  O157  1  0.88070000  0.88070000  0.18980000  1.0
  O  O158  1  0.02220000  0.78630000  0.28874000  1.0
  O  O159  1  0.01850000  0.75320000  0.18854000  1.0
  O  O160  1  0.82580000  0.59440000  0.28133000  1.0
  O  O161  1  0.82780000  0.55770000  0.18192000  1.0
  O  O162  1  0.69790000  0.72650000  0.27369000  1.0
  O  O163  1  0.68870000  0.68190000  0.17374000  1.0
  O  O164  1  0.84440000  0.93010000  0.59016000  1.0
  O  O165  1  0.85250000  0.91780000  0.90464000  1.0
  O  O166  1  0.87020000  0.57490000  0.87871000  1.0
  O  O167  1  0.88260000  0.59740000  0.56575000  1.0
  O  O168  1  0.11120000  0.07730000  0.71073000  1.0
  O  O169  1  0.11930000  0.11930000  0.81020000  1.0
  O  O170  1  0.97780000  0.21370000  0.71126000  1.0
  O  O171  1  0.98150000  0.24680000  0.81146000  1.0
  O  O172  1  0.17420000  0.40560000  0.71867000  1.0
  O  O173  1  0.17220000  0.44230000  0.81808000  1.0
  O  O174  1  0.30210000  0.27350000  0.72631000  1.0
  O  O175  1  0.31130000  0.31810000  0.82626000  1.0
  O  O176  1  0.15560000  0.06990000  0.40984000  1.0
  O  O177  1  0.14750000  0.08220000  0.09536000  1.0
  O  O178  1  0.12980000  0.42510000  0.12129000  1.0
  O  O179  1  0.11740000  0.40260000  0.43425000  1.0
