# generated using pymatgen
data_La2P5H40C23N5O19
_symmetry_space_group_name_H-M   'P 1'
_cell_length_a   13.32990000
_cell_length_b   13.63620000
_cell_length_c   15.29000000
_cell_angle_alpha   108.91600000
_cell_angle_beta   101.89800000
_cell_angle_gamma   111.69100000
_symmetry_Int_Tables_number   1
_chemical_formula_structural   La2P5H40C23N5O19
_chemical_formula_sum   'La4 P10 H80 C46 N10 O38'
_cell_volume   2268.77748556
_cell_formula_units_Z   2
loop_
 _symmetry_equiv_pos_site_id
 _symmetry_equiv_pos_as_xyz
  1  'x, y, z'
loop_
 _atom_site_type_symbol
 _atom_site_label
 _atom_site_symmetry_multiplicity
 _atom_site_fract_x
 _atom_site_fract_y
 _atom_site_fract_z
 _atom_site_occupancy
  La  La0  1  0.31604000  0.35235000  0.57350000  1.0
  La  La1  1  0.09936000  0.10653000  0.65392000  1.0
  La  La2  1  0.68396000  0.64765000  0.42650000  1.0
  La  La3  1  0.90064000  0.89347000  0.34607000  1.0
  P  P4  1  0.98740000  0.17602000  0.44251000  1.0
  P  P5  1  0.41857000  0.22557000  0.73460000  1.0
  P  P6  1  0.21765000  0.07775000  0.43968000  1.0
  P  P7  1  0.38499000  0.40817000  0.36889000  1.0
  P  P8  1  0.81688000  0.82315000  0.07088000  1.0
  P  P9  1  0.01260000  0.82398000  0.55749000  1.0
  P  P10  1  0.58143000  0.77443000  0.26540000  1.0
  P  P11  1  0.78235000  0.92225000  0.56032000  1.0
  P  P12  1  0.61501000  0.59183000  0.63111000  1.0
  P  P13  1  0.18312000  0.17685000  0.92912000  1.0
  H  H14  1  0.06690000  0.41520000  0.53330000  1.0
  H  H15  1  0.41630000  0.33860000  0.93250000  1.0
  H  H16  1  0.41000000  0.05610000  0.55910000  1.0
  H  H17  1  0.15800000  0.23700000  0.12580000  1.0
  H  H18  1  0.96540000  0.08330000  0.22780000  1.0
  H  H19  1  0.06110000  0.44370000  0.86900000  1.0
  H  H20  1  0.11530000  0.63780000  0.97310000  1.0
  H  H21  1  0.24530000  0.78990000  0.95340000  1.0
  H  H22  1  0.32490000  0.75030000  0.83580000  1.0
  H  H23  1  0.92120000  0.27090000  0.55780000  1.0
  H  H24  1  0.84240000  0.23480000  0.44940000  1.0
  H  H25  1  0.88180000  0.45450000  0.55190000  1.0
  H  H26  1  0.98290000  0.47630000  0.64170000  1.0
  H  H27  1  0.98400000  0.34540000  0.36510000  1.0
  H  H28  1  0.88340000  0.37420000  0.38020000  1.0
  H  H29  1  0.59680000  0.36160000  0.86560000  1.0
  H  H30  1  0.53170000  0.25820000  0.89020000  1.0
  H  H31  1  0.58390000  0.40060000  0.05820000  1.0
  H  H32  1  0.64650000  0.50450000  0.03310000  1.0
  H  H33  1  0.53140000  0.51920000  0.88950000  1.0
  H  H34  1  0.40020000  0.42480000  0.83000000  1.0
  H  H35  1  0.25300000  0.92320000  0.36590000  1.0
  H  H36  1  0.21820000  0.91490000  0.45550000  1.0
  H  H37  1  0.45130000  0.01930000  0.38410000  1.0
  H  H38  1  0.47080000  0.14080000  0.45970000  1.0
  H  H39  1  0.35130000  0.86140000  0.51830000  1.0
  H  H40  1  0.37830000  0.84660000  0.42110000  1.0
  H  H41  1  0.34400000  0.34750000  0.20060000  1.0
  H  H42  1  0.29200000  0.43120000  0.23800000  1.0
  H  H43  1  0.23450000  0.14010000  0.19390000  1.0
  H  H44  1  0.18920000  0.17660000  0.27980000  1.0
  H  H45  1  0.10560000  0.30470000  0.29220000  1.0
  H  H46  1  0.09380000  0.35650000  0.21490000  1.0
  H  H47  1  0.95420000  0.17020000  0.08950000  1.0
  H  H48  1  0.91270000  0.20090000  0.17880000  1.0
  H  H49  1  0.05550000  0.98610000  0.16310000  1.0
  H  H50  1  0.04610000  0.02580000  0.07760000  1.0
  H  H51  1  0.78290000  0.98540000  0.12120000  1.0
  H  H52  1  0.82290000  0.97640000  0.03100000  1.0
  H  H53  1  0.39240000  0.26900000  0.38270000  1.0
  H  H54  1  0.93310000  0.58480000  0.46670000  1.0
  H  H55  1  0.58370000  0.66140000  0.06750000  1.0
  H  H56  1  0.59000000  0.94390000  0.44090000  1.0
  H  H57  1  0.84200000  0.76300000  0.87420000  1.0
  H  H58  1  0.03460000  0.91670000  0.77220000  1.0
  H  H59  1  0.93890000  0.55630000  0.13100000  1.0
  H  H60  1  0.88470000  0.36220000  0.02690000  1.0
  H  H61  1  0.75470000  0.21010000  0.04660000  1.0
  H  H62  1  0.67510000  0.24970000  0.16420000  1.0
  H  H63  1  0.07880000  0.72910000  0.44220000  1.0
  H  H64  1  0.15760000  0.76520000  0.55060000  1.0
  H  H65  1  0.11820000  0.54550000  0.44810000  1.0
  H  H66  1  0.01710000  0.52370000  0.35830000  1.0
  H  H67  1  0.01600000  0.65460000  0.63490000  1.0
  H  H68  1  0.11660000  0.62580000  0.61980000  1.0
  H  H69  1  0.40320000  0.63840000  0.13440000  1.0
  H  H70  1  0.46830000  0.74180000  0.10980000  1.0
  H  H71  1  0.41610000  0.59940000  0.94180000  1.0
  H  H72  1  0.35350000  0.49550000  0.96690000  1.0
  H  H73  1  0.46860000  0.48080000  0.11050000  1.0
  H  H74  1  0.59980000  0.57520000  0.17000000  1.0
  H  H75  1  0.74700000  0.07680000  0.63410000  1.0
  H  H76  1  0.78180000  0.08510000  0.54450000  1.0
  H  H77  1  0.54870000  0.98070000  0.61590000  1.0
  H  H78  1  0.52920000  0.85920000  0.54030000  1.0
  H  H79  1  0.64870000  0.13860000  0.48170000  1.0
  H  H80  1  0.62170000  0.15340000  0.57890000  1.0
  H  H81  1  0.65600000  0.65250000  0.79940000  1.0
  H  H82  1  0.70800000  0.56880000  0.76200000  1.0
  H  H83  1  0.76550000  0.85990000  0.80610000  1.0
  H  H84  1  0.81080000  0.82340000  0.72020000  1.0
  H  H85  1  0.89440000  0.69530000  0.70780000  1.0
  H  H86  1  0.90620000  0.64350000  0.78510000  1.0
  H  H87  1  0.04580000  0.82980000  0.91050000  1.0
  H  H88  1  0.08730000  0.79910000  0.82120000  1.0
  H  H89  1  0.94450000  0.01390000  0.83690000  1.0
  H  H90  1  0.95390000  0.97420000  0.92240000  1.0
  H  H91  1  0.21710000  0.01460000  0.87880000  1.0
  H  H92  1  0.17710000  0.02360000  0.96900000  1.0
  H  H93  1  0.60760000  0.73100000  0.61730000  1.0
  C  C94  1  0.29400000  0.54720000  0.70500000  1.0
  C  C95  1  0.12960000  0.35480000  0.72880000  1.0
  C  C96  1  0.24120000  0.57340000  0.78080000  1.0
  C  C97  1  0.16170000  0.48060000  0.79060000  1.0
  C  C98  1  0.11450000  0.50500000  0.86200000  1.0
  C  C99  1  0.14650000  0.62170000  0.92440000  1.0
  C  C100  1  0.22470000  0.71240000  0.91300000  1.0
  C  C101  1  0.27180000  0.68870000  0.84250000  1.0
  C  C102  1  0.92210000  0.26890000  0.49390000  1.0
  C  C103  1  0.96400000  0.47770000  0.57750000  1.0
  C  C104  1  0.96560000  0.39900000  0.40990000  1.0
  C  C105  1  0.52190000  0.31150000  0.86410000  1.0
  C  C106  1  0.57290000  0.45500000  0.03420000  1.0
  C  C107  1  0.46170000  0.46930000  0.89540000  1.0
  C  C108  1  0.26750000  0.96850000  0.43510000  1.0
  C  C109  1  0.47430000  0.06930000  0.45410000  1.0
  C  C110  1  0.40260000  0.90070000  0.49010000  1.0
  C  C111  1  0.29960000  0.36410000  0.24090000  1.0
  C  C112  1  0.17430000  0.15730000  0.21000000  1.0
  C  C113  1  0.09050000  0.28770000  0.22270000  1.0
  C  C114  1  0.97050000  0.18300000  0.15830000  1.0
  C  C115  1  0.05720000  0.05000000  0.14740000  1.0
  C  C116  1  0.83920000  0.97260000  0.09430000  1.0
  C  C117  1  0.70600000  0.45280000  0.29500000  1.0
  C  C118  1  0.87040000  0.64520000  0.27120000  1.0
  C  C119  1  0.75880000  0.42660000  0.21920000  1.0
  C  C120  1  0.83830000  0.51940000  0.20940000  1.0
  C  C121  1  0.88550000  0.49500000  0.13800000  1.0
  C  C122  1  0.85350000  0.37830000  0.07560000  1.0
  C  C123  1  0.77530000  0.28760000  0.08700000  1.0
  C  C124  1  0.72820000  0.31130000  0.15750000  1.0
  C  C125  1  0.07790000  0.73110000  0.50610000  1.0
  C  C126  1  0.03600000  0.52230000  0.42250000  1.0
  C  C127  1  0.03440000  0.60100000  0.59010000  1.0
  C  C128  1  0.47810000  0.68850000  0.13590000  1.0
  C  C129  1  0.42710000  0.54500000  0.96580000  1.0
  C  C130  1  0.53830000  0.53070000  0.10460000  1.0
  C  C131  1  0.73250000  0.03150000  0.56490000  1.0
  C  C132  1  0.52570000  0.93070000  0.54590000  1.0
  C  C133  1  0.59740000  0.09930000  0.50990000  1.0
  C  C134  1  0.70040000  0.63590000  0.75910000  1.0
  C  C135  1  0.82570000  0.84270000  0.79000000  1.0
  C  C136  1  0.90950000  0.71230000  0.77730000  1.0
  C  C137  1  0.02950000  0.81700000  0.84170000  1.0
  C  C138  1  0.94280000  0.95000000  0.85260000  1.0
  C  C139  1  0.16080000  0.02740000  0.90570000  1.0
  N  N140  1  0.98980000  0.39270000  0.50700000  1.0
  N  N141  1  0.48370000  0.38700000  0.93060000  1.0
  N  N142  1  0.39150000  0.00720000  0.49470000  1.0
  N  N143  1  0.17970000  0.26040000  0.19260000  1.0
  N  N144  1  0.95990000  0.07280000  0.16480000  1.0
  N  N145  1  0.01020000  0.60730000  0.49300000  1.0
  N  N146  1  0.51630000  0.61300000  0.06940000  1.0
  N  N147  1  0.60850000  0.99280000  0.50530000  1.0
  N  N148  1  0.82030000  0.73960000  0.80740000  1.0
  N  N149  1  0.04010000  0.92720000  0.83520000  1.0
  O  O150  1  0.22990000  0.50100000  0.61450000  1.0
  O  O151  1  0.39680000  0.56340000  0.73270000  1.0
  O  O152  1  0.20200000  0.33250000  0.69400000  1.0
  O  O153  1  0.03440000  0.27440000  0.71420000  1.0
  O  O154  1  0.97650000  0.09870000  0.49700000  1.0
  O  O155  1  0.10900000  0.26400000  0.46290000  1.0
  O  O156  1  0.91420000  0.09440000  0.33200000  1.0
  O  O157  1  0.43510000  0.31170000  0.68910000  1.0
  O  O158  1  0.45470000  0.13390000  0.68830000  1.0
  O  O159  1  0.30190000  0.17380000  0.74420000  1.0
  O  O160  1  0.21170000  0.13130000  0.54140000  1.0
  O  O161  1  0.30680000  0.17960000  0.43020000  1.0
  O  O162  1  0.10170000  0.00540000  0.35550000  1.0
  O  O163  1  0.30960000  0.40310000  0.42910000  1.0
  O  O164  1  0.42850000  0.31350000  0.36190000  1.0
  O  O165  1  0.48390000  0.52690000  0.39950000  1.0
  O  O166  1  0.68650000  0.74600000  0.02550000  1.0
  O  O167  1  0.87500000  0.79200000  0.99710000  1.0
  O  O168  1  0.87770000  0.83280000  0.17050000  1.0
  O  O169  1  0.77010000  0.49900000  0.38550000  1.0
  O  O170  1  0.60320000  0.43660000  0.26730000  1.0
  O  O171  1  0.79800000  0.66750000  0.30600000  1.0
  O  O172  1  0.96560000  0.72560000  0.28580000  1.0
  O  O173  1  0.02350000  0.90130000  0.50300000  1.0
  O  O174  1  0.89100000  0.73600000  0.53710000  1.0
  O  O175  1  0.08580000  0.90560000  0.66800000  1.0
  O  O176  1  0.56490000  0.68830000  0.31090000  1.0
  O  O177  1  0.54530000  0.86610000  0.31170000  1.0
  O  O178  1  0.69810000  0.82620000  0.25580000  1.0
  O  O179  1  0.78830000  0.86870000  0.45860000  1.0
  O  O180  1  0.69320000  0.82040000  0.56980000  1.0
  O  O181  1  0.89830000  0.99460000  0.64450000  1.0
  O  O182  1  0.69040000  0.59690000  0.57090000  1.0
  O  O183  1  0.57150000  0.68650000  0.63810000  1.0
  O  O184  1  0.51610000  0.47310000  0.60050000  1.0
  O  O185  1  0.31350000  0.25400000  0.97450000  1.0
  O  O186  1  0.12500000  0.20800000  0.00290000  1.0
  O  O187  1  0.12230000  0.16720000  0.82950000  1.0
