# generated using pymatgen
data_CoH22C29(NO2)3
_symmetry_space_group_name_H-M   'P 1'
_cell_length_a   16.83960000
_cell_length_b   21.48630000
_cell_length_c   21.48630026
_cell_angle_alpha   81.16665751
_cell_angle_beta   66.92919838
_cell_angle_gamma   66.92910000
_symmetry_Int_Tables_number   1
_chemical_formula_structural   CoH22C29(NO2)3
_chemical_formula_sum   'Co8 H176 C232 N24 O48'
_cell_volume   6580.37295223
_cell_formula_units_Z   8
loop_
 _symmetry_equiv_pos_site_id
 _symmetry_equiv_pos_as_xyz
  1  'x, y, z'
loop_
 _atom_site_type_symbol
 _atom_site_label
 _atom_site_symmetry_multiplicity
 _atom_site_fract_x
 _atom_site_fract_y
 _atom_site_fract_z
 _atom_site_occupancy
  Co  Co0  1  0.10388000  0.75762000  0.53798000  1.0
  Co  Co1  1  0.39948000  0.74238000  0.96202000  1.0
  Co  Co2  1  0.36150000  0.53798000  0.74238000  1.0
  Co  Co3  1  0.64187000  0.96201000  0.75762000  1.0
  Co  Co4  1  0.89612000  0.24238000  0.46202000  1.0
  Co  Co5  1  0.60052000  0.25762000  0.03798000  1.0
  Co  Co6  1  0.63851000  0.46201000  0.25762000  1.0
  Co  Co7  1  0.35813000  0.03799000  0.24238000  1.0
  H  H8  1  0.97910000  0.85830000  0.65330000  1.0
  H  H9  1  0.93470000  0.87120000  0.76620000  1.0
  H  H10  1  0.10040000  0.68090000  0.77470000  1.0
  H  H11  1  0.13940000  0.67390000  0.66090000  1.0
  H  H12  1  0.80710000  0.86730000  0.98770000  1.0
  H  H13  1  0.84930000  0.85280000  0.87420000  1.0
  H  H14  1  0.09670000  0.72360000  0.87300000  1.0
  H  H15  1  0.04210000  0.74230000  0.98730000  1.0
  H  H16  1  0.08810000  0.85000000  0.41420000  1.0
  H  H17  1  0.14970000  0.84970000  0.29890000  1.0
  H  H18  1  0.30090000  0.65520000  0.30580000  1.0
  H  H19  1  0.23420000  0.66120000  0.42060000  1.0
  H  H20  1  0.81440000  0.45970000  0.55630000  1.0
  H  H21  1  0.65490000  0.49070000  0.59350000  1.0
  H  H22  1  0.63600000  0.49910000  0.78450000  1.0
  H  H23  1  0.79560000  0.46800000  0.74740000  1.0
  H  H24  1  0.07360000  0.43910000  0.61570000  1.0
  H  H25  1  0.14030000  0.52030000  0.57310000  1.0
  H  H26  1  0.89290000  0.65840000  0.58000000  1.0
  H  H27  1  0.82620000  0.57730000  0.62250000  1.0
  H  H28  1  0.99490000  0.85960000  0.52080000  1.0
  H  H29  1  0.07680000  0.87050000  0.50550000  1.0
  H  H30  1  0.49070000  0.64170000  0.84670000  1.0
  H  H31  1  0.57210000  0.62880000  0.73380000  1.0
  H  H32  1  0.55600000  0.81910000  0.72530000  1.0
  H  H33  1  0.47420000  0.82610000  0.83910000  1.0
  H  H34  1  0.66210000  0.63270000  0.51230000  1.0
  H  H35  1  0.57630000  0.64720000  0.62580000  1.0
  H  H36  1  0.69330000  0.77640000  0.62700000  1.0
  H  H37  1  0.77170000  0.75770000  0.51270000  1.0
  H  H38  1  0.35230000  0.65000000  0.08580000  1.0
  H  H39  1  0.29830000  0.65030000  0.20110000  1.0
  H  H40  1  0.26190000  0.84480000  0.19420000  1.0
  H  H41  1  0.31600000  0.83880000  0.07940000  1.0
  H  H42  1  0.83040000  0.04030000  0.94370000  1.0
  H  H43  1  0.73910000  0.00930000  0.90650000  1.0
  H  H44  1  0.91960000  0.00090000  0.71550000  1.0
  H  H45  1  0.01100000  0.03200000  0.75260000  1.0
  H  H46  1  0.12840000  0.06090000  0.88430000  1.0
  H  H47  1  0.23370000  0.97970000  0.92690000  1.0
  H  H48  1  0.13130000  0.84160000  0.92000000  1.0
  H  H49  1  0.02600000  0.92270000  0.87750000  1.0
  H  H50  1  0.37530000  0.64040000  0.97920000  1.0
  H  H51  1  0.45280000  0.62950000  0.99450000  1.0
  H  H52  1  0.33740000  0.65330000  0.64170000  1.0
  H  H53  1  0.30590000  0.76620000  0.62880000  1.0
  H  H54  1  0.28130000  0.77470000  0.81910000  1.0
  H  H55  1  0.31330000  0.66090000  0.82610000  1.0
  H  H56  1  0.17440000  0.98770000  0.63270000  1.0
  H  H57  1  0.20210000  0.87420000  0.64720000  1.0
  H  H58  1  0.32030000  0.87300000  0.77640000  1.0
  H  H59  1  0.28440000  0.98730000  0.75770000  1.0
  H  H60  1  0.43810000  0.41420000  0.65000000  1.0
  H  H61  1  0.49940000  0.29890000  0.65030000  1.0
  H  H62  1  0.45610000  0.30580000  0.84480000  1.0
  H  H63  1  0.39540000  0.42060000  0.83880000  1.0
  H  H64  1  0.77410000  0.55630000  0.04030000  1.0
  H  H65  1  0.64560000  0.59350000  0.00930000  1.0
  H  H66  1  0.63510000  0.78450000  0.00090000  1.0
  H  H67  1  0.76360000  0.74740000  0.03200000  1.0
  H  H68  1  0.01270000  0.61570000  0.06090000  1.0
  H  H69  1  0.16060000  0.57310000  0.97970000  1.0
  H  H70  1  0.05130000  0.58000000  0.84160000  1.0
  H  H71  1  0.90350000  0.62250000  0.92270000  1.0
  H  H72  1  0.35450000  0.52080000  0.64040000  1.0
  H  H73  1  0.44730000  0.50550000  0.62950000  1.0
  H  H74  1  0.63240000  0.84670000  0.85830000  1.0
  H  H75  1  0.70090000  0.73380000  0.87120000  1.0
  H  H76  1  0.87510000  0.72530000  0.68090000  1.0
  H  H77  1  0.80030000  0.83910000  0.67390000  1.0
  H  H78  1  0.79480000  0.51230000  0.86730000  1.0
  H  H79  1  0.72350000  0.62580000  0.85280000  1.0
  H  H80  1  0.96970000  0.62700000  0.72360000  1.0
  H  H81  1  0.02940000  0.51270000  0.74230000  1.0
  H  H82  1  0.50230000  0.08580000  0.85000000  1.0
  H  H83  1  0.44860000  0.20110000  0.84970000  1.0
  H  H84  1  0.60670000  0.19420000  0.65520000  1.0
  H  H85  1  0.65480000  0.07940000  0.66120000  1.0
  H  H86  1  0.37070000  0.94370000  0.45970000  1.0
  H  H87  1  0.24840000  0.90650000  0.49070000  1.0
  H  H88  1  0.42050000  0.71550000  0.49910000  1.0
  H  H89  1  0.54300000  0.75260000  0.46800000  1.0
  H  H90  1  0.68930000  0.88430000  0.43910000  1.0
  H  H91  1  0.71340000  0.92690000  0.52030000  1.0
  H  H92  1  0.47290000  0.92000000  0.65840000  1.0
  H  H93  1  0.44870000  0.87750000  0.57730000  1.0
  H  H94  1  0.51570000  0.97920000  0.85960000  1.0
  H  H95  1  0.58230000  0.99450000  0.87050000  1.0
  H  H96  1  0.02090000  0.14170000  0.34670000  1.0
  H  H97  1  0.06530000  0.12880000  0.23380000  1.0
  H  H98  1  0.89960000  0.31910000  0.22530000  1.0
  H  H99  1  0.86060000  0.32610000  0.33910000  1.0
  H  H100  1  0.19290000  0.13270000  0.01230000  1.0
  H  H101  1  0.15070000  0.14720000  0.12580000  1.0
  H  H102  1  0.90330000  0.27640000  0.12700000  1.0
  H  H103  1  0.95790000  0.25770000  0.01270000  1.0
  H  H104  1  0.91190000  0.15000000  0.58580000  1.0
  H  H105  1  0.85030000  0.15030000  0.70110000  1.0
  H  H106  1  0.69910000  0.34480000  0.69420000  1.0
  H  H107  1  0.76580000  0.33880000  0.57940000  1.0
  H  H108  1  0.18560000  0.54030000  0.44370000  1.0
  H  H109  1  0.34510000  0.50930000  0.40650000  1.0
  H  H110  1  0.36400000  0.50090000  0.21550000  1.0
  H  H111  1  0.20440000  0.53200000  0.25260000  1.0
  H  H112  1  0.92640000  0.56090000  0.38430000  1.0
  H  H113  1  0.85970000  0.47970000  0.42690000  1.0
  H  H114  1  0.10710000  0.34160000  0.42000000  1.0
  H  H115  1  0.17380000  0.42270000  0.37750000  1.0
  H  H116  1  0.00510000  0.14040000  0.47920000  1.0
  H  H117  1  0.92320000  0.12950000  0.49450000  1.0
  H  H118  1  0.50930000  0.35830000  0.15330000  1.0
  H  H119  1  0.42790000  0.37120000  0.26620000  1.0
  H  H120  1  0.44400000  0.18090000  0.27470000  1.0
  H  H121  1  0.52580000  0.17390000  0.16090000  1.0
  H  H122  1  0.33790000  0.36730000  0.48770000  1.0
  H  H123  1  0.42370000  0.35280000  0.37420000  1.0
  H  H124  1  0.30670000  0.22360000  0.37300000  1.0
  H  H125  1  0.22830000  0.24230000  0.48730000  1.0
  H  H126  1  0.64770000  0.35000000  0.91420000  1.0
  H  H127  1  0.70170000  0.34970000  0.79890000  1.0
  H  H128  1  0.73810000  0.15520000  0.80580000  1.0
  H  H129  1  0.68400000  0.16120000  0.92060000  1.0
  H  H130  1  0.16960000  0.95970000  0.05630000  1.0
  H  H131  1  0.26090000  0.99070000  0.09350000  1.0
  H  H132  1  0.08040000  0.99910000  0.28450000  1.0
  H  H133  1  0.98900000  0.96800000  0.24740000  1.0
  H  H134  1  0.87160000  0.93910000  0.11570000  1.0
  H  H135  1  0.76630000  0.02030000  0.07310000  1.0
  H  H136  1  0.86870000  0.15840000  0.08000000  1.0
  H  H137  1  0.97400000  0.07730000  0.12250000  1.0
  H  H138  1  0.62470000  0.35960000  0.02080000  1.0
  H  H139  1  0.54720000  0.37050000  0.00550000  1.0
  H  H140  1  0.66260000  0.34670000  0.35830000  1.0
  H  H141  1  0.69410000  0.23380000  0.37120000  1.0
  H  H142  1  0.71870000  0.22530000  0.18090000  1.0
  H  H143  1  0.68670000  0.33910000  0.17390000  1.0
  H  H144  1  0.82560000  0.01230000  0.36730000  1.0
  H  H145  1  0.79790000  0.12580000  0.35280000  1.0
  H  H146  1  0.67970000  0.12700000  0.22360000  1.0
  H  H147  1  0.71560000  0.01270000  0.24230000  1.0
  H  H148  1  0.56190000  0.58580000  0.35000000  1.0
  H  H149  1  0.50060000  0.70110000  0.34970000  1.0
  H  H150  1  0.54390000  0.69420000  0.15520000  1.0
  H  H151  1  0.60460000  0.57940000  0.16120000  1.0
  H  H152  1  0.22590000  0.44370000  0.95970000  1.0
  H  H153  1  0.35440000  0.40650000  0.99070000  1.0
  H  H154  1  0.36490000  0.21550000  0.99910000  1.0
  H  H155  1  0.23640000  0.25260000  0.96800000  1.0
  H  H156  1  0.98730000  0.38430000  0.93910000  1.0
  H  H157  1  0.83940000  0.42690000  0.02030000  1.0
  H  H158  1  0.94870000  0.42000000  0.15840000  1.0
  H  H159  1  0.09650000  0.37750000  0.07730000  1.0
  H  H160  1  0.64550000  0.47920000  0.35960000  1.0
  H  H161  1  0.55270000  0.49450000  0.37050000  1.0
  H  H162  1  0.36760000  0.15330000  0.14170000  1.0
  H  H163  1  0.29910000  0.26620000  0.12880000  1.0
  H  H164  1  0.12490000  0.27470000  0.31910000  1.0
  H  H165  1  0.19970000  0.16090000  0.32610000  1.0
  H  H166  1  0.20520000  0.48770000  0.13270000  1.0
  H  H167  1  0.27650000  0.37420000  0.14720000  1.0
  H  H168  1  0.03030000  0.37300000  0.27640000  1.0
  H  H169  1  0.97060000  0.48730000  0.25770000  1.0
  H  H170  1  0.49770000  0.91420000  0.15000000  1.0
  H  H171  1  0.55140000  0.79890000  0.15030000  1.0
  H  H172  1  0.39330000  0.80580000  0.34480000  1.0
  H  H173  1  0.34520000  0.92060000  0.33880000  1.0
  H  H174  1  0.62930000  0.05630000  0.54030000  1.0
  H  H175  1  0.75160000  0.09350000  0.50930000  1.0
  H  H176  1  0.57950000  0.28450000  0.50090000  1.0
  H  H177  1  0.45700000  0.24740000  0.53200000  1.0
  H  H178  1  0.31070000  0.11570000  0.56090000  1.0
  H  H179  1  0.28660000  0.07310000  0.47970000  1.0
  H  H180  1  0.52710000  0.08000000  0.34160000  1.0
  H  H181  1  0.55130000  0.12250000  0.42270000  1.0
  H  H182  1  0.48430000  0.02080000  0.14040000  1.0
  H  H183  1  0.41770000  0.00550000  0.12950000  1.0
  C  C184  1  0.00399000  0.82166000  0.67796000  1.0
  C  C185  1  0.97658000  0.82972000  0.74612000  1.0
  C  C186  1  0.01052000  0.77714000  0.78502000  1.0
  C  C187  1  0.07366000  0.71815000  0.75133000  1.0
  C  C188  1  0.09707000  0.71464000  0.68242000  1.0
  C  C189  1  0.86660000  0.83780000  0.96420000  1.0
  C  C190  1  0.89131000  0.82962000  0.89556000  1.0
  C  C191  1  0.98014000  0.78605000  0.85907000  1.0
  C  C192  1  0.03672000  0.75342000  0.89454000  1.0
  C  C193  1  0.00270000  0.76570000  0.96390000  1.0
  C  C194  1  0.13121000  0.80980000  0.39198000  1.0
  C  C195  1  0.16780000  0.80993000  0.32247000  1.0
  C  C196  1  0.23120000  0.75118000  0.28782000  1.0
  C  C197  1  0.25640000  0.69579000  0.32641000  1.0
  C  C198  1  0.21621000  0.70003000  0.39575000  1.0
  C  C199  1  0.06480000  0.64930000  0.55550000  1.0
  C  C200  1  0.53190000  0.51550000  0.70770000  1.0
  C  C201  1  0.82090000  0.46070000  0.64810000  1.0
  C  C202  1  0.77870000  0.46760000  0.60200000  1.0
  C  C203  1  0.68300000  0.48620000  0.62440000  1.0
  C  C204  1  0.62960000  0.49810000  0.69270000  1.0
  C  C205  1  0.67180000  0.49120000  0.73880000  1.0
  C  C206  1  0.76740000  0.47250000  0.71650000  1.0
  C  C207  1  0.94330000  0.50010000  0.62330000  1.0
  C  C208  1  0.03740000  0.48310000  0.60850000  1.0
  C  C209  1  0.07730000  0.53170000  0.58310000  1.0
  C  C210  1  0.02320000  0.59740000  0.57240000  1.0
  C  C211  1  0.92910000  0.61450000  0.58710000  1.0
  C  C212  1  0.88920000  0.56580000  0.61260000  1.0
  C  C213  1  0.50361000  0.67834000  0.82204000  1.0
  C  C214  1  0.55242000  0.67028000  0.75388000  1.0
  C  C215  1  0.57268000  0.72286000  0.71498000  1.0
  C  C216  1  0.54314000  0.78185000  0.74867000  1.0
  C  C217  1  0.49413000  0.78536000  0.81758000  1.0
  C  C218  1  0.66860000  0.66220000  0.53580000  1.0
  C  C219  1  0.61649000  0.67038000  0.60444000  1.0
  C  C220  1  0.62526000  0.71395000  0.64093000  1.0
  C  C221  1  0.68468000  0.74658000  0.60546000  1.0
  C  C222  1  0.73230000  0.73430000  0.53610000  1.0
  C  C223  1  0.33299000  0.69020000  0.10802000  1.0
  C  C224  1  0.30020000  0.69007000  0.17753000  1.0
  C  C225  1  0.27020000  0.74882000  0.21218000  1.0
  C  C226  1  0.27860000  0.80421000  0.17359000  1.0
  C  C227  1  0.31199000  0.79997000  0.10425000  1.0
  C  C228  1  0.26960000  0.85070000  0.94450000  1.0
  C  C229  1  0.75510000  0.98450000  0.79230000  1.0
  C  C230  1  0.92970000  0.03930000  0.85190000  1.0
  C  C231  1  0.84830000  0.03240000  0.89800000  1.0
  C  C232  1  0.79360000  0.01380000  0.87560000  1.0
  C  C233  1  0.82040000  0.00190000  0.80730000  1.0
  C  C234  1  0.90180000  0.00880000  0.76120000  1.0
  C  C235  1  0.95640000  0.02750000  0.78350000  1.0
  C  C236  1  0.06670000  0.99990000  0.87670000  1.0
  C  C237  1  0.12900000  0.01690000  0.89150000  1.0
  C  C238  1  0.19210000  0.96830000  0.91690000  1.0
  C  C239  1  0.19300000  0.90260000  0.92760000  1.0
  C  C240  1  0.13070000  0.88550000  0.91290000  1.0
  C  C241  1  0.06760000  0.93420000  0.88740000  1.0
  C  C242  1  0.32565000  0.67796000  0.67834000  1.0
  C  C243  1  0.30630000  0.74612000  0.67028000  1.0
  C  C244  1  0.28766000  0.78502000  0.72286000  1.0
  C  C245  1  0.29181000  0.75133000  0.78185000  1.0
  C  C246  1  0.31171000  0.68242000  0.78536000  1.0
  C  C247  1  0.20440000  0.96420000  0.66220000  1.0
  C  C248  1  0.22093000  0.89556000  0.67038000  1.0
  C  C249  1  0.26619000  0.85907000  0.71395000  1.0
  C  C250  1  0.29014000  0.89454000  0.74658000  1.0
  C  C251  1  0.26840000  0.96390000  0.73430000  1.0
  C  C252  1  0.44101000  0.39198000  0.69020000  1.0
  C  C253  1  0.47773000  0.32247000  0.69007000  1.0
  C  C254  1  0.48238000  0.28782000  0.74882000  1.0
  C  C255  1  0.45219000  0.32641000  0.80421000  1.0
  C  C256  1  0.41624000  0.39575000  0.79997000  1.0
  C  C257  1  0.21410000  0.55550000  0.85070000  1.0
  C  C258  1  0.54740000  0.70770000  0.98450000  1.0
  C  C259  1  0.78160000  0.64810000  0.03930000  1.0
  C  C260  1  0.74630000  0.60200000  0.03240000  1.0
  C  C261  1  0.66920000  0.62440000  0.01380000  1.0
  C  C262  1  0.62770000  0.69270000  0.00190000  1.0
  C  C263  1  0.66300000  0.73880000  0.00880000  1.0
  C  C264  1  0.73990000  0.71650000  0.02750000  1.0
  C  C265  1  0.94340000  0.62330000  0.99990000  1.0
  C  C266  1  0.02050000  0.60850000  0.01690000  1.0
  C  C267  1  0.10900000  0.58310000  0.96830000  1.0
  C  C268  1  0.12060000  0.57240000  0.90260000  1.0
  C  C269  1  0.04360000  0.58710000  0.88550000  1.0
  C  C270  1  0.95500000  0.61260000  0.93420000  1.0
  C  C271  1  0.68195000  0.82204000  0.82166000  1.0
  C  C272  1  0.72270000  0.75388000  0.82972000  1.0
  C  C273  1  0.79554000  0.71498000  0.77714000  1.0
  C  C274  1  0.82499000  0.74867000  0.71815000  1.0
  C  C275  1  0.77949000  0.81758000  0.71464000  1.0
  C  C276  1  0.83080000  0.53580000  0.83780000  1.0
  C  C277  1  0.78687000  0.60444000  0.82962000  1.0
  C  C278  1  0.83921000  0.64093000  0.78605000  1.0
  C  C279  1  0.93126000  0.60546000  0.75342000  1.0
  C  C280  1  0.96660000  0.53610000  0.76570000  1.0
  C  C281  1  0.52319000  0.10802000  0.80980000  1.0
  C  C282  1  0.49027000  0.17753000  0.80993000  1.0
  C  C283  1  0.51902000  0.21218000  0.75118000  1.0
  C  C284  1  0.58281000  0.17359000  0.69579000  1.0
  C  C285  1  0.61196000  0.10425000  0.70003000  1.0
  C  C286  1  0.62030000  0.94450000  0.64930000  1.0
  C  C287  1  0.23960000  0.79230000  0.51550000  1.0
  C  C288  1  0.46900000  0.85190000  0.46070000  1.0
  C  C289  1  0.38070000  0.89800000  0.46760000  1.0
  C  C290  1  0.30740000  0.87560000  0.48620000  1.0
  C  C291  1  0.32230000  0.80730000  0.49810000  1.0
  C  C292  1  0.41060000  0.76120000  0.49120000  1.0
  C  C293  1  0.48390000  0.78350000  0.47250000  1.0
  C  C294  1  0.56660000  0.87670000  0.50010000  1.0
  C  C295  1  0.64590000  0.89150000  0.48310000  1.0
  C  C296  1  0.66040000  0.91690000  0.53170000  1.0
  C  C297  1  0.59560000  0.92760000  0.59740000  1.0
  C  C298  1  0.51620000  0.91290000  0.61450000  1.0
  C  C299  1  0.50180000  0.88740000  0.56580000  1.0
  C  C300  1  0.99601000  0.17834000  0.32204000  1.0
  C  C301  1  0.02342000  0.17028000  0.25388000  1.0
  C  C302  1  0.98948000  0.22286000  0.21498000  1.0
  C  C303  1  0.92634000  0.28185000  0.24867000  1.0
  C  C304  1  0.90293000  0.28536000  0.31758000  1.0
  C  C305  1  0.13340000  0.16220000  0.03580000  1.0
  C  C306  1  0.10869000  0.17038000  0.10444000  1.0
  C  C307  1  0.01986000  0.21395000  0.14093000  1.0
  C  C308  1  0.96328000  0.24658000  0.10546000  1.0
  C  C309  1  0.99730000  0.23430000  0.03610000  1.0
  C  C310  1  0.86879000  0.19020000  0.60802000  1.0
  C  C311  1  0.83220000  0.19007000  0.67753000  1.0
  C  C312  1  0.76880000  0.24882000  0.71218000  1.0
  C  C313  1  0.74360000  0.30421000  0.67359000  1.0
  C  C314  1  0.78379000  0.29997000  0.60425000  1.0
  C  C315  1  0.93520000  0.35070000  0.44450000  1.0
  C  C316  1  0.46810000  0.48450000  0.29230000  1.0
  C  C317  1  0.17910000  0.53930000  0.35190000  1.0
  C  C318  1  0.22130000  0.53240000  0.39800000  1.0
  C  C319  1  0.31700000  0.51380000  0.37560000  1.0
  C  C320  1  0.37040000  0.50190000  0.30730000  1.0
  C  C321  1  0.32820000  0.50880000  0.26120000  1.0
  C  C322  1  0.23260000  0.52750000  0.28350000  1.0
  C  C323  1  0.05670000  0.49990000  0.37670000  1.0
  C  C324  1  0.96260000  0.51690000  0.39150000  1.0
  C  C325  1  0.92270000  0.46830000  0.41690000  1.0
  C  C326  1  0.97680000  0.40260000  0.42760000  1.0
  C  C327  1  0.07090000  0.38550000  0.41290000  1.0
  C  C328  1  0.11080000  0.43420000  0.38740000  1.0
  C  C329  1  0.49639000  0.32166000  0.17796000  1.0
  C  C330  1  0.44758000  0.32972000  0.24612000  1.0
  C  C331  1  0.42732000  0.27714000  0.28502000  1.0
  C  C332  1  0.45686000  0.21815000  0.25133000  1.0
  C  C333  1  0.50587000  0.21464000  0.18242000  1.0
  C  C334  1  0.33140000  0.33780000  0.46420000  1.0
  C  C335  1  0.38351000  0.32962000  0.39556000  1.0
  C  C336  1  0.37474000  0.28605000  0.35907000  1.0
  C  C337  1  0.31532000  0.25342000  0.39454000  1.0
  C  C338  1  0.26770000  0.26570000  0.46390000  1.0
  C  C339  1  0.66701000  0.30980000  0.89198000  1.0
  C  C340  1  0.69980000  0.30993000  0.82247000  1.0
  C  C341  1  0.72980000  0.25118000  0.78782000  1.0
  C  C342  1  0.72140000  0.19579000  0.82641000  1.0
  C  C343  1  0.68801000  0.20003000  0.89575000  1.0
  C  C344  1  0.73040000  0.14930000  0.05550000  1.0
  C  C345  1  0.24490000  0.01550000  0.20770000  1.0
  C  C346  1  0.07030000  0.96070000  0.14810000  1.0
  C  C347  1  0.15170000  0.96760000  0.10200000  1.0
  C  C348  1  0.20640000  0.98620000  0.12440000  1.0
  C  C349  1  0.17960000  0.99810000  0.19270000  1.0
  C  C350  1  0.09820000  0.99120000  0.23880000  1.0
  C  C351  1  0.04360000  0.97250000  0.21650000  1.0
  C  C352  1  0.93330000  0.00010000  0.12330000  1.0
  C  C353  1  0.87100000  0.98310000  0.10850000  1.0
  C  C354  1  0.80790000  0.03170000  0.08310000  1.0
  C  C355  1  0.80700000  0.09740000  0.07240000  1.0
  C  C356  1  0.86930000  0.11450000  0.08710000  1.0
  C  C357  1  0.93240000  0.06580000  0.11260000  1.0
  C  C358  1  0.67435000  0.32204000  0.32166000  1.0
  C  C359  1  0.69370000  0.25388000  0.32972000  1.0
  C  C360  1  0.71234000  0.21498000  0.27714000  1.0
  C  C361  1  0.70819000  0.24867000  0.21815000  1.0
  C  C362  1  0.68829000  0.31758000  0.21464000  1.0
  C  C363  1  0.79560000  0.03580000  0.33780000  1.0
  C  C364  1  0.77907000  0.10444000  0.32962000  1.0
  C  C365  1  0.73381000  0.14093000  0.28605000  1.0
  C  C366  1  0.70986000  0.10546000  0.25342000  1.0
  C  C367  1  0.73160000  0.03610000  0.26570000  1.0
  C  C368  1  0.55899000  0.60802000  0.30980000  1.0
  C  C369  1  0.52227000  0.67753000  0.30993000  1.0
  C  C370  1  0.51762000  0.71218000  0.25118000  1.0
  C  C371  1  0.54781000  0.67359000  0.19579000  1.0
  C  C372  1  0.58376000  0.60425000  0.20003000  1.0
  C  C373  1  0.78590000  0.44450000  0.14930000  1.0
  C  C374  1  0.45260000  0.29230000  0.01550000  1.0
  C  C375  1  0.21840000  0.35190000  0.96070000  1.0
  C  C376  1  0.25370000  0.39800000  0.96760000  1.0
  C  C377  1  0.33080000  0.37560000  0.98620000  1.0
  C  C378  1  0.37230000  0.30730000  0.99810000  1.0
  C  C379  1  0.33700000  0.26120000  0.99120000  1.0
  C  C380  1  0.26010000  0.28350000  0.97250000  1.0
  C  C381  1  0.05660000  0.37670000  0.00010000  1.0
  C  C382  1  0.97950000  0.39150000  0.98310000  1.0
  C  C383  1  0.89100000  0.41690000  0.03170000  1.0
  C  C384  1  0.87940000  0.42760000  0.09740000  1.0
  C  C385  1  0.95640000  0.41290000  0.11450000  1.0
  C  C386  1  0.04500000  0.38740000  0.06580000  1.0
  C  C387  1  0.31805000  0.17796000  0.17834000  1.0
  C  C388  1  0.27730000  0.24612000  0.17028000  1.0
  C  C389  1  0.20446000  0.28502000  0.22286000  1.0
  C  C390  1  0.17501000  0.25133000  0.28185000  1.0
  C  C391  1  0.22051000  0.18242000  0.28536000  1.0
  C  C392  1  0.16920000  0.46420000  0.16220000  1.0
  C  C393  1  0.21313000  0.39556000  0.17038000  1.0
  C  C394  1  0.16079000  0.35907000  0.21395000  1.0
  C  C395  1  0.06874000  0.39454000  0.24658000  1.0
  C  C396  1  0.03340000  0.46390000  0.23430000  1.0
  C  C397  1  0.47681000  0.89198000  0.19020000  1.0
  C  C398  1  0.50973000  0.82247000  0.19007000  1.0
  C  C399  1  0.48098000  0.78782000  0.24882000  1.0
  C  C400  1  0.41719000  0.82641000  0.30421000  1.0
  C  C401  1  0.38804000  0.89575000  0.29997000  1.0
  C  C402  1  0.37970000  0.05550000  0.35070000  1.0
  C  C403  1  0.76040000  0.20770000  0.48450000  1.0
  C  C404  1  0.53100000  0.14810000  0.53930000  1.0
  C  C405  1  0.61930000  0.10200000  0.53240000  1.0
  C  C406  1  0.69260000  0.12440000  0.51380000  1.0
  C  C407  1  0.67770000  0.19270000  0.50190000  1.0
  C  C408  1  0.58940000  0.23880000  0.50880000  1.0
  C  C409  1  0.51610000  0.21650000  0.52750000  1.0
  C  C410  1  0.43340000  0.12330000  0.49990000  1.0
  C  C411  1  0.35410000  0.10850000  0.51690000  1.0
  C  C412  1  0.33960000  0.08310000  0.46830000  1.0
  C  C413  1  0.40440000  0.07240000  0.40260000  1.0
  C  C414  1  0.48380000  0.08710000  0.38550000  1.0
  C  C415  1  0.49820000  0.11260000  0.43420000  1.0
  N  N416  1  0.06378000  0.76470000  0.64514000  1.0
  N  N417  1  0.92060000  0.80720000  0.99860000  1.0
  N  N418  1  0.15443000  0.75495000  0.42899000  1.0
  N  N419  1  0.47362000  0.73530000  0.85486000  1.0
  N  N420  1  0.72640000  0.69280000  0.50140000  1.0
  N  N421  1  0.33837000  0.74505000  0.07101000  1.0
  N  N422  1  0.32848000  0.64514000  0.73530000  1.0
  N  N423  1  0.22780000  0.99860000  0.69280000  1.0
  N  N424  1  0.40938000  0.42899000  0.74505000  1.0
  N  N425  1  0.70892000  0.85486000  0.76470000  1.0
  N  N426  1  0.91920000  0.50140000  0.80720000  1.0
  N  N427  1  0.58342000  0.07101000  0.75495000  1.0
  N  N428  1  0.93622000  0.23530000  0.35486000  1.0
  N  N429  1  0.07940000  0.19280000  0.00140000  1.0
  N  N430  1  0.84557000  0.24505000  0.57101000  1.0
  N  N431  1  0.52638000  0.26470000  0.14514000  1.0
  N  N432  1  0.27360000  0.30720000  0.49860000  1.0
  N  N433  1  0.66163000  0.25495000  0.92899000  1.0
  N  N434  1  0.67152000  0.35486000  0.26470000  1.0
  N  N435  1  0.77220000  0.00140000  0.30720000  1.0
  N  N436  1  0.59062000  0.57101000  0.25495000  1.0
  N  N437  1  0.29108000  0.14514000  0.23530000  1.0
  N  N438  1  0.08080000  0.49860000  0.19280000  1.0
  N  N439  1  0.41658000  0.92899000  0.24505000  1.0
  O  O440  1  0.01480000  0.71240000  0.55040000  1.0
  O  O441  1  0.14570000  0.64000000  0.54620000  1.0
  O  O442  1  0.47400000  0.52670000  0.76650000  1.0
  O  O443  1  0.49367000  0.52643000  0.66063000  1.0
  O  O444  1  0.90830000  0.45130000  0.64970000  1.0
  O  O445  1  0.03960000  0.85270000  0.53350000  1.0
  O  O446  1  0.27760000  0.78760000  0.94960000  1.0
  O  O447  1  0.33190000  0.86000000  0.95380000  1.0
  O  O448  1  0.76720000  0.97330000  0.73350000  1.0
  O  O449  1  0.68073000  0.97357000  0.83937000  1.0
  O  O450  1  0.00930000  0.04870000  0.85030000  1.0
  O  O451  1  0.42580000  0.64730000  0.96650000  1.0
  O  O452  1  0.22720000  0.55040000  0.78760000  1.0
  O  O453  1  0.28570000  0.54620000  0.86000000  1.0
  O  O454  1  0.50070000  0.76650000  0.97330000  1.0
  O  O455  1  0.52010000  0.66063000  0.97357000  1.0
  O  O456  1  0.85960000  0.64970000  0.04870000  1.0
  O  O457  1  0.39230000  0.53350000  0.64730000  1.0
  O  O458  1  0.56520000  0.94960000  0.71240000  1.0
  O  O459  1  0.69190000  0.95380000  0.64000000  1.0
  O  O460  1  0.24050000  0.73350000  0.52670000  1.0
  O  O461  1  0.15430000  0.83937000  0.52643000  1.0
  O  O462  1  0.55800000  0.85030000  0.45130000  1.0
  O  O463  1  0.57310000  0.96650000  0.85270000  1.0
  O  O464  1  0.98520000  0.28760000  0.44960000  1.0
  O  O465  1  0.85430000  0.36000000  0.45380000  1.0
  O  O466  1  0.52600000  0.47330000  0.23350000  1.0
  O  O467  1  0.50633000  0.47357000  0.33937000  1.0
  O  O468  1  0.09170000  0.54870000  0.35030000  1.0
  O  O469  1  0.96040000  0.14730000  0.46650000  1.0
  O  O470  1  0.72240000  0.21240000  0.05040000  1.0
  O  O471  1  0.66810000  0.14000000  0.04620000  1.0
  O  O472  1  0.23280000  0.02670000  0.26650000  1.0
  O  O473  1  0.31927000  0.02643000  0.16063000  1.0
  O  O474  1  0.99070000  0.95130000  0.14970000  1.0
  O  O475  1  0.57420000  0.35270000  0.03350000  1.0
  O  O476  1  0.77280000  0.44960000  0.21240000  1.0
  O  O477  1  0.71430000  0.45380000  0.14000000  1.0
  O  O478  1  0.49930000  0.23350000  0.02670000  1.0
  O  O479  1  0.47990000  0.33937000  0.02643000  1.0
  O  O480  1  0.14040000  0.35030000  0.95130000  1.0
  O  O481  1  0.60770000  0.46650000  0.35270000  1.0
  O  O482  1  0.43480000  0.05040000  0.28760000  1.0
  O  O483  1  0.30810000  0.04620000  0.36000000  1.0
  O  O484  1  0.75950000  0.26650000  0.47330000  1.0
  O  O485  1  0.84570000  0.16063000  0.47357000  1.0
  O  O486  1  0.44200000  0.14970000  0.54870000  1.0
  O  O487  1  0.42690000  0.03350000  0.14730000  1.0
