# generated using pymatgen
data_SrH32C28N8O11
_symmetry_space_group_name_H-M   'P 1'
_cell_length_a   14.20020000
_cell_length_b   14.20020000
_cell_length_c   17.20730000
_cell_angle_alpha   90.00000000
_cell_angle_beta   90.00000000
_cell_angle_gamma   90.00000000
_symmetry_Int_Tables_number   1
_chemical_formula_structural   SrH32C28N8O11
_chemical_formula_sum   'Sr4 H128 C112 N32 O44'
_cell_volume   3469.77771015
_cell_formula_units_Z   4
loop_
 _symmetry_equiv_pos_site_id
 _symmetry_equiv_pos_as_xyz
  1  'x, y, z'
loop_
 _atom_site_type_symbol
 _atom_site_label
 _atom_site_symmetry_multiplicity
 _atom_site_fract_x
 _atom_site_fract_y
 _atom_site_fract_z
 _atom_site_occupancy
  Sr  Sr0  1  0.38987400  0.38987400  0.50000000  1
  Sr  Sr1  1  0.61012600  0.61012600  0.00000000  1
  Sr  Sr2  1  0.11012600  0.88987400  0.25000000  1
  Sr  Sr3  1  0.88987400  0.11012600  0.75000000  1
  C  C4  1  0.33985000  0.22345000  0.64414000  1
  C  C5  1  0.66015000  0.77655000  0.14414000  1
  C  C6  1  0.27655000  0.83985000  0.39414000  1
  C  C7  1  0.72345000  0.16015000  0.89414000  1
  C  C8  1  0.16015000  0.72345000  0.10586000  1
  C  C9  1  0.83985000  0.27655000  0.60586000  1
  C  C10  1  0.22345000  0.33985000  0.35586000  1
  C  C11  1  0.77655000  0.66015000  0.85586000  1
  C  C12  1  0.16155000  0.23975000  0.66745000  1
  C  C13  1  0.83845000  0.76025000  0.16745000  1
  C  C14  1  0.26025000  0.66155000  0.41745000  1
  C  C15  1  0.73975000  0.33845000  0.91745000  1
  C  C16  1  0.33845000  0.73975000  0.08255000  1
  C  C17  1  0.66155000  0.26025000  0.58255000  1
  C  C18  1  0.23975000  0.16155000  0.33255000  1
  C  C19  1  0.76025000  0.83845000  0.83255000  1
  C  C20  1  0.24505000  0.26445000  0.63304000  1
  C  C21  1  0.75495000  0.73555000  0.13304000  1
  C  C22  1  0.23555000  0.74505000  0.38304000  1
  C  C23  1  0.76445000  0.25495000  0.88304000  1
  C  C24  1  0.25495000  0.76445000  0.11696000  1
  C  C25  1  0.74505000  0.23555000  0.61696000  1
  C  C26  1  0.26445000  0.24505000  0.36696000  1
  C  C27  1  0.73555000  0.75495000  0.86696000  1
  C  C28  1  0.13575000  0.17626000  0.73275000  1
  C  C29  1  0.86425000  0.82374000  0.23275000  1
  C  C30  1  0.32374000  0.63575000  0.48275000  1
  C  C31  1  0.67626000  0.36425000  0.98275000  1
  C  C32  1  0.36425000  0.67626000  0.01725000  1
  C  C33  1  0.63575000  0.32374000  0.51725000  1
  C  C34  1  0.17626000  0.13575000  0.26725000  1
  C  C35  1  0.82374000  0.86425000  0.76725000  1
  C  C36  1  0.13825000  0.35135000  0.58264000  1
  C  C37  1  0.86175000  0.64865000  0.08264000  1
  C  C38  1  0.14865000  0.63825000  0.33264000  1
  C  C39  1  0.85135000  0.36175000  0.83264000  1
  C  C40  1  0.36175000  0.85135000  0.16736000  1
  C  C41  1  0.63825000  0.14865000  0.66736000  1
  C  C42  1  0.35135000  0.13825000  0.41736000  1
  C  C43  1  0.64865000  0.86175000  0.91736000  1
  N  N44  1  0.22924000  0.33364000  0.57973000  1
  N  N45  1  0.77076000  0.66636000  0.07973000  1
  N  N46  1  0.16636000  0.72924000  0.32973000  1
  N  N47  1  0.83364000  0.27076000  0.82973000  1
  N  N48  1  0.27076000  0.83364000  0.17027000  1
  N  N49  1  0.72924000  0.16636000  0.67027000  1
  N  N50  1  0.33364000  0.22924000  0.42027000  1
  N  N51  1  0.66636000  0.77076000  0.92027000  1
  N  N52  1  0.09544000  0.29524000  0.63383000  1
  N  N53  1  0.90456000  0.70476000  0.13383000  1
  N  N54  1  0.20476000  0.59544000  0.38383000  1
  N  N55  1  0.79524000  0.40456000  0.88383000  1
  N  N56  1  0.40456000  0.79524000  0.11617000  1
  N  N57  1  0.59544000  0.20476000  0.61617000  1
  N  N58  1  0.29524000  0.09544000  0.36617000  1
  N  N59  1  0.70476000  0.90456000  0.86617000  1
  H  H60  1  0.03610000  0.29450000  0.64380000  1
  H  H61  1  0.96390000  0.70550000  0.14380000  1
  H  H62  1  0.20550000  0.53610000  0.39380000  1
  H  H63  1  0.79450000  0.46390000  0.89380000  1
  H  H64  1  0.46390000  0.79450000  0.10620000  1
  H  H65  1  0.53610000  0.20550000  0.60620000  1
  H  H66  1  0.29450000  0.03610000  0.35620000  1
  H  H67  1  0.70550000  0.96390000  0.85620000  1
  C  C68  1  0.08636000  0.42626000  0.53635000  1
  C  C69  1  0.91364000  0.57374000  0.03635000  1
  C  C70  1  0.07374000  0.58636000  0.28635000  1
  C  C71  1  0.92626000  0.41364000  0.78635000  1
  C  C72  1  0.41364000  0.92626000  0.21365000  1
  C  C73  1  0.58636000  0.07374000  0.71365000  1
  C  C74  1  0.42626000  0.08636000  0.46365000  1
  C  C75  1  0.57374000  0.91364000  0.96365000  1
  H  H76  1  0.12240000  0.44180000  0.49020000  1
  H  H77  1  0.87760000  0.55820000  0.99020000  1
  H  H78  1  0.05820000  0.62240000  0.24020000  1
  H  H79  1  0.94180000  0.37760000  0.74020000  1
  H  H80  1  0.37760000  0.94180000  0.25980000  1
  H  H81  1  0.62240000  0.05820000  0.75980000  1
  H  H82  1  0.44180000  0.12240000  0.50980000  1
  H  H83  1  0.55820000  0.87760000  0.00980000  1
  H  H84  1  0.02590000  0.40150000  0.51960000  1
  H  H85  1  0.97410000  0.59850000  0.01960000  1
  H  H86  1  0.09850000  0.52590000  0.26960000  1
  H  H87  1  0.90150000  0.47410000  0.76960000  1
  H  H88  1  0.47410000  0.90150000  0.23040000  1
  H  H89  1  0.52590000  0.09850000  0.73040000  1
  H  H90  1  0.40150000  0.02590000  0.48040000  1
  H  H91  1  0.59850000  0.97410000  0.98040000  1
  C  C92  1  0.07096000  0.51396000  0.58355000  1
  C  C93  1  0.92904000  0.48604000  0.08355000  1
  C  C94  1  0.98604000  0.57096000  0.33355000  1
  C  C95  1  0.01396000  0.42904000  0.83355000  1
  C  C96  1  0.42904000  0.01396000  0.16645000  1
  C  C97  1  0.57096000  0.98604000  0.66645000  1
  C  C98  1  0.51396000  0.07096000  0.41645000  1
  C  C99  1  0.48604000  0.92904000  0.91645000  1
  C  C100  1  0.97201000  0.63628000  0.63297000  1
  C  C101  1  0.02799000  0.36372000  0.13297000  1
  C  C102  1  0.86372000  0.47201000  0.38297000  1
  C  C103  1  0.13628000  0.52799000  0.88297000  1
  C  C104  1  0.52799000  0.13628000  0.11703000  1
  C  C105  1  0.47201000  0.86372000  0.61703000  1
  C  C106  1  0.63628000  0.97201000  0.36703000  1
  C  C107  1  0.36372000  0.02799000  0.86703000  1
  H  H108  1  0.91280000  0.66370000  0.63690000  1
  H  H109  1  0.08720000  0.33630000  0.13690000  1
  H  H110  1  0.83630000  0.41280000  0.38690000  1
  H  H111  1  0.16370000  0.58720000  0.88690000  1
  H  H112  1  0.58720000  0.16370000  0.11310000  1
  H  H113  1  0.41280000  0.83630000  0.61310000  1
  H  H114  1  0.66370000  0.91280000  0.36310000  1
  H  H115  1  0.33630000  0.08720000  0.86310000  1
  N  N116  1  0.13747000  0.63917000  0.66706000  1
  N  N117  1  0.86253000  0.36083000  0.16706000  1
  N  N118  1  0.86083000  0.63747000  0.41706000  1
  N  N119  1  0.13917000  0.36253000  0.91706000  1
  N  N120  1  0.36253000  0.13917000  0.08294000  1
  N  N121  1  0.63747000  0.86083000  0.58294000  1
  N  N122  1  0.63917000  0.13747000  0.33294000  1
  N  N123  1  0.36083000  0.86253000  0.83294000  1
  C  C124  1  0.14347000  0.55867000  0.62406000  1
  C  C125  1  0.85653000  0.44133000  0.12406000  1
  C  C126  1  0.94133000  0.64347000  0.37406000  1
  C  C127  1  0.05867000  0.35653000  0.87406000  1
  C  C128  1  0.35653000  0.05867000  0.12594000  1
  C  C129  1  0.64347000  0.94133000  0.62594000  1
  C  C130  1  0.55867000  0.14347000  0.37594000  1
  C  C131  1  0.44133000  0.85653000  0.87594000  1
  H  H132  1  0.20250000  0.53050000  0.62130000  1
  H  H133  1  0.79750000  0.46950000  0.12130000  1
  H  H134  1  0.96950000  0.70250000  0.37130000  1
  H  H135  1  0.03050000  0.29750000  0.87130000  1
  H  H136  1  0.29750000  0.03050000  0.12870000  1
  H  H137  1  0.70250000  0.96950000  0.62870000  1
  H  H138  1  0.53050000  0.20250000  0.37870000  1
  H  H139  1  0.46950000  0.79750000  0.87870000  1
  C  C140  1  0.98403000  0.55368000  0.58996000  1
  C  C141  1  0.01597000  0.44632000  0.08996000  1
  C  C142  1  0.94632000  0.48403000  0.33996000  1
  C  C143  1  0.05368000  0.51597000  0.83996000  1
  C  C144  1  0.51597000  0.05368000  0.16004000  1
  C  C145  1  0.48403000  0.94632000  0.66004000  1
  C  C146  1  0.55368000  0.98403000  0.41004000  1
  C  C147  1  0.44632000  0.01597000  0.91004000  1
  H  H148  1  0.93260000  0.52580000  0.56570000  1
  H  H149  1  0.06740000  0.47420000  0.06570000  1
  H  H150  1  0.97420000  0.43260000  0.31570000  1
  H  H151  1  0.02580000  0.56740000  0.81570000  1
  H  H152  1  0.56740000  0.02580000  0.18430000  1
  H  H153  1  0.43260000  0.97420000  0.68430000  1
  H  H154  1  0.52580000  0.93260000  0.43430000  1
  H  H155  1  0.47420000  0.06740000  0.93430000  1
  C  C156  1  0.04810000  0.67649000  0.66907000  1
  C  C157  1  0.95190000  0.32351000  0.16907000  1
  C  C158  1  0.82351000  0.54810000  0.41907000  1
  C  C159  1  0.17649000  0.45190000  0.91907000  1
  C  C160  1  0.45190000  0.17649000  0.08093000  1
  C  C161  1  0.54810000  0.82351000  0.58093000  1
  C  C162  1  0.67649000  0.04810000  0.33093000  1
  C  C163  1  0.32351000  0.95190000  0.83093000  1
  H  H164  1  0.03870000  0.73210000  0.69650000  1
  H  H165  1  0.96130000  0.26790000  0.19650000  1
  H  H166  1  0.76790000  0.53870000  0.44650000  1
  H  H167  1  0.23210000  0.46130000  0.94650000  1
  H  H168  1  0.46130000  0.23210000  0.05350000  1
  H  H169  1  0.53870000  0.76790000  0.55350000  1
  H  H170  1  0.73210000  0.03870000  0.30350000  1
  H  H171  1  0.26790000  0.96130000  0.80350000  1
  O  O172  1  0.20124000  0.12026000  0.75765000  1
  O  O173  1  0.79876000  0.87974000  0.25765000  1
  O  O174  1  0.37974000  0.70124000  0.50765000  1
  O  O175  1  0.62026000  0.29876000  0.00765000  1
  O  O176  1  0.29876000  0.62026000  0.99235000  1
  O  O177  1  0.70124000  0.37974000  0.49235000  1
  O  O178  1  0.12026000  0.20124000  0.24235000  1
  O  O179  1  0.87974000  0.79876000  0.74235000  1
  H  H180  1  0.24940000  0.12870000  0.73240000  1
  H  H181  1  0.75060000  0.87130000  0.23240000  1
  H  H182  1  0.37130000  0.74940000  0.48240000  1
  H  H183  1  0.62870000  0.25060000  0.98240000  1
  H  H184  1  0.25060000  0.62870000  0.01760000  1
  H  H185  1  0.74940000  0.37130000  0.51760000  1
  H  H186  1  0.12870000  0.24940000  0.26760000  1
  H  H187  1  0.87130000  0.75060000  0.76760000  1
  O  O188  1  0.05434000  0.17515000  0.75824000  1
  O  O189  1  0.94566000  0.82485000  0.25824000  1
  O  O190  1  0.32485000  0.55434000  0.50824000  1
  O  O191  1  0.67515000  0.44566000  0.00824000  1
  O  O192  1  0.44566000  0.67515000  0.99176000  1
  O  O193  1  0.55434000  0.32485000  0.49176000  1
  O  O194  1  0.17515000  0.05434000  0.24176000  1
  O  O195  1  0.82485000  0.94566000  0.74176000  1
  O  O196  1  0.40513000  0.25584000  0.60433000  1
  O  O197  1  0.59487000  0.74416000  0.10433000  1
  O  O198  1  0.24416000  0.90513000  0.35433000  1
  O  O199  1  0.75584000  0.09487000  0.85433000  1
  O  O200  1  0.09487000  0.75584000  0.14567000  1
  O  O201  1  0.90513000  0.24416000  0.64567000  1
  O  O202  1  0.25584000  0.40513000  0.39567000  1
  O  O203  1  0.74416000  0.59487000  0.89567000  1
  O  O204  1  0.35083000  0.15884000  0.69304000  1
  O  O205  1  0.64917000  0.84116000  0.19304000  1
  O  O206  1  0.34116000  0.85083000  0.44304000  1
  O  O207  1  0.65884000  0.14917000  0.94304000  1
  O  O208  1  0.14917000  0.65884000  0.05696000  1
  O  O209  1  0.85083000  0.34116000  0.55696000  1
  O  O210  1  0.15884000  0.35083000  0.30696000  1
  O  O211  1  0.84116000  0.64917000  0.80696000  1
