# generated using pymatgen
data_Hf3H32C53O16
_symmetry_space_group_name_H-M   'P 1'
_cell_length_a   21.04200000
_cell_length_b   21.04200000
_cell_length_c   40.18400000
_cell_angle_alpha   90.00000000
_cell_angle_beta   90.00000000
_cell_angle_gamma   90.00000000
_symmetry_Int_Tables_number   1
_chemical_formula_structural   Hf3H32C53O16
_chemical_formula_sum   'Hf12 H128 C212 O64'
_cell_volume   17792.09946058
_cell_formula_units_Z   4
loop_
 _symmetry_equiv_pos_site_id
 _symmetry_equiv_pos_as_xyz
  1  'x, y, z'
loop_
 _atom_site_type_symbol
 _atom_site_label
 _atom_site_symmetry_multiplicity
 _atom_site_fract_x
 _atom_site_fract_y
 _atom_site_fract_z
 _atom_site_occupancy
  Hf  Hf0  1  0.50000000  0.50000000  0.06121813  1
  Hf  Hf1  1  0.00000000  0.00000000  0.56121813  1
  Hf  Hf2  1  0.50000000  0.50000000  0.93878187  1
  Hf  Hf3  1  0.00000000  0.00000000  0.43878187  1
  Hf  Hf4  1  0.38300200  0.49954300  0.00000000  1
  Hf  Hf5  1  0.50045700  0.38300200  0.00000000  1
  Hf  Hf6  1  0.61699800  0.50045700  0.00000000  1
  Hf  Hf7  1  0.49954300  0.61699800  0.00000000  1
  Hf  Hf8  1  0.88300200  0.00000000  0.50000000  1
  Hf  Hf9  1  0.00045700  0.88300200  0.50000000  1
  Hf  Hf10  1  0.11699800  0.00045700  0.50000000  1
  Hf  Hf11  1  0.00000000  0.11699800  0.50000000  1
  O  O12  1  0.41163000  0.49963000  0.08887120  1
  O  O13  1  0.50037000  0.41163000  0.08887120  1
  O  O14  1  0.58837000  0.50037000  0.08887120  1
  O  O15  1  0.49963000  0.58837000  0.08887120  1
  O  O16  1  0.91163000  0.00000000  0.58887120  1
  O  O17  1  0.00037000  0.91163000  0.58887120  1
  O  O18  1  0.08837000  0.00037000  0.58887120  1
  O  O19  1  0.00000000  0.08837000  0.58887120  1
  O  O20  1  0.58837000  0.50037000  0.91112880  1
  O  O21  1  0.49963000  0.58837000  0.91112880  1
  O  O22  1  0.41163000  0.49963000  0.91112880  1
  O  O23  1  0.50037000  0.41163000  0.91112880  1
  O  O24  1  0.08837000  0.00037000  0.41112880  1
  O  O25  1  0.00000000  0.08837000  0.41112880  1
  O  O26  1  0.91163000  0.00000000  0.41112880  1
  O  O27  1  0.00037000  0.91163000  0.41112880  1
  O  O28  1  0.33453000  0.49894000  0.04930140  1
  O  O29  1  0.50106000  0.33453000  0.04930140  1
  O  O30  1  0.66547000  0.50106000  0.04930140  1
  O  O31  1  0.49894000  0.66547000  0.04930140  1
  O  O32  1  0.83453000  0.00000000  0.54930140  1
  O  O33  1  0.00106000  0.83453000  0.54930140  1
  O  O34  1  0.16547000  0.00106000  0.54930140  1
  O  O35  1  0.00000000  0.16547000  0.54930140  1
  O  O36  1  0.66547000  0.50106000  0.95069860  1
  O  O37  1  0.49894000  0.66547000  0.95069860  1
  O  O38  1  0.33453000  0.49894000  0.95069860  1
  O  O39  1  0.50106000  0.33453000  0.95069860  1
  O  O40  1  0.16547000  0.00106000  0.45069860  1
  O  O41  1  0.00000000  0.16547000  0.45069860  1
  O  O42  1  0.83453000  0.00000000  0.45069860  1
  O  O43  1  0.00106000  0.83453000  0.45069860  1
  O  O60  1  0.44054000  0.44124000  0.02919150  1
  O  O61  1  0.55876000  0.44054000  0.02919150  1
  O  O62  1  0.55946000  0.55876000  0.02919150  1
  O  O63  1  0.44124000  0.55946000  0.02919150  1
  O  O64  1  0.94054000  0.94124000  0.52919150  1
  O  O65  1  0.05876000  0.94054000  0.52919150  1
  O  O66  1  0.05946000  0.05876000  0.52919150  1
  O  O67  1  0.94124000  0.05946000  0.52919150  1
  O  O68  1  0.55946000  0.55876000  0.97080850  1
  O  O69  1  0.44124000  0.55946000  0.97080850  1
  O  O70  1  0.44054000  0.44124000  0.97080850  1
  O  O71  1  0.55876000  0.44054000  0.97080850  1
  O  O72  1  0.05946000  0.05876000  0.47080850  1
  O  O73  1  0.94124000  0.05946000  0.47080850  1
  O  O74  1  0.94054000  0.94124000  0.47080850  1
  O  O75  1  0.05876000  0.94054000  0.47080850  1
  C  C76  1  0.00000000  0.50000000  0.25000000  1
  C  C77  1  0.50000000  0.00000000  0.25000000  1
  C  C78  1  0.50000000  0.00000000  0.75000000  1
  C  C79  1  0.00000000  0.50000000  0.75000000  1
  C  C80  1  0.05786160  0.49796170  0.22574800  1
  C  C81  1  0.50203830  0.05786160  0.22574800  1
  C  C82  1  0.94213840  0.50203830  0.22574800  1
  C  C83  1  0.49796170  0.94213840  0.22574800  1
  C  C84  1  0.55786160  0.00000000  0.72574800  1
  C  C85  1  0.00203830  0.55786160  0.72574800  1
  C  C86  1  0.44213840  0.00203830  0.72574800  1
  C  C87  1  0.00000000  0.44213840  0.72574800  1
  C  C88  1  0.94213840  0.50203830  0.77425200  1
  C  C89  1  0.49796170  0.94213840  0.77425200  1
  C  C90  1  0.05786160  0.49796170  0.77425200  1
  C  C91  1  0.50203830  0.05786160  0.77425200  1
  C  C92  1  0.44213840  0.00203830  0.27425200  1
  C  C93  1  0.00000000  0.44213840  0.27425200  1
  C  C94  1  0.55786160  0.00000000  0.27425200  1
  C  C95  1  0.00203830  0.55786160  0.27425200  1
  C  C96  1  0.15842000  0.50002000  0.18080110  1
  C  C97  1  0.49998000  0.15842000  0.18080110  1
  C  C98  1  0.84158000  0.49998000  0.18080110  1
  C  C99  1  0.50002000  0.84158000  0.18080110  1
  C  C100  1  0.65842000  0.00002000  0.68080110  1
  C  C101  1  0.00000000  0.65842000  0.68080110  1
  C  C102  1  0.34158000  0.00000000  0.68080110  1
  C  C103  1  0.00002000  0.34158000  0.68080110  1
  C  C104  1  0.84158000  0.49998000  0.81919890  1
  C  C105  1  0.50002000  0.84158000  0.81919890  1
  C  C106  1  0.15842000  0.50002000  0.81919890  1
  C  C107  1  0.49998000  0.15842000  0.81919890  1
  C  C108  1  0.34158000  0.00000000  0.31919890  1
  C  C109  1  0.00002000  0.34158000  0.31919890  1
  C  C110  1  0.65842000  0.00002000  0.31919890  1
  C  C111  1  0.00000000  0.65842000  0.31919890  1
  C  C112  1  0.10563000  0.45253000  0.22778150  1
  C  C113  1  0.54747000  0.10563000  0.22778150  1
  C  C114  1  0.89437000  0.54747000  0.22778150  1
  C  C115  1  0.45253000  0.89437000  0.22778150  1
  C  C116  1  0.60563000  0.95253000  0.72778150  1
  C  C117  1  0.04747000  0.60563000  0.72778150  1
  C  C118  1  0.39437000  0.04747000  0.72778150  1
  C  C119  1  0.95253000  0.39437000  0.72778150  1
  C  C120  1  0.89437000  0.54747000  0.77221850  1
  C  C121  1  0.45253000  0.89437000  0.77221850  1
  C  C122  1  0.10563000  0.45253000  0.77221850  1
  C  C123  1  0.54747000  0.10563000  0.77221850  1
  C  C124  1  0.39437000  0.04747000  0.27221850  1
  C  C125  1  0.95253000  0.39437000  0.27221850  1
  C  C126  1  0.60563000  0.95253000  0.27221850  1
  C  C127  1  0.04747000  0.60563000  0.27221850  1
  H  H128  1  0.10390000  0.42060000  0.24450000  1
  H  H129  1  0.57940000  0.10390000  0.24450000  1
  H  H130  1  0.89610000  0.57940000  0.24450000  1
  H  H131  1  0.42060000  0.89610000  0.24450000  1
  H  H132  1  0.60390000  0.92060000  0.74450000  1
  H  H133  1  0.07940000  0.60390000  0.74450000  1
  H  H134  1  0.39610000  0.07940000  0.74450000  1
  H  H135  1  0.92060000  0.39610000  0.74450000  1
  H  H136  1  0.89610000  0.57940000  0.75550000  1
  H  H137  1  0.42060000  0.89610000  0.75550000  1
  H  H138  1  0.10390000  0.42060000  0.75550000  1
  H  H139  1  0.57940000  0.10390000  0.75550000  1
  H  H140  1  0.39610000  0.07940000  0.25550000  1
  H  H141  1  0.92060000  0.39610000  0.25550000  1
  H  H142  1  0.60390000  0.92060000  0.25550000  1
  H  H143  1  0.07940000  0.60390000  0.25550000  1
  C  C144  1  0.15583000  0.45343000  0.20532170  1
  C  C145  1  0.54657000  0.15583000  0.20532170  1
  C  C146  1  0.84417000  0.54657000  0.20532170  1
  C  C147  1  0.45343000  0.84417000  0.20532170  1
  C  C148  1  0.65583000  0.95343000  0.70532170  1
  C  C149  1  0.04657000  0.65583000  0.70532170  1
  C  C150  1  0.34417000  0.04657000  0.70532170  1
  C  C151  1  0.95343000  0.34417000  0.70532170  1
  C  C152  1  0.84417000  0.54657000  0.79467830  1
  C  C153  1  0.45343000  0.84417000  0.79467830  1
  C  C154  1  0.15583000  0.45343000  0.79467830  1
  C  C155  1  0.54657000  0.15583000  0.79467830  1
  C  C156  1  0.34417000  0.04657000  0.29467830  1
  C  C157  1  0.95343000  0.34417000  0.29467830  1
  C  C158  1  0.65583000  0.95343000  0.29467830  1
  C  C159  1  0.04657000  0.65583000  0.29467830  1
  H  H160  1  0.18840000  0.42230000  0.20670000  1
  H  H161  1  0.57770000  0.18840000  0.20670000  1
  H  H162  1  0.81160000  0.57770000  0.20670000  1
  H  H163  1  0.42230000  0.81160000  0.20670000  1
  H  H164  1  0.68840000  0.92230000  0.70670000  1
  H  H165  1  0.07770000  0.68840000  0.70670000  1
  H  H166  1  0.31160000  0.07770000  0.70670000  1
  H  H167  1  0.92230000  0.31160000  0.70670000  1
  H  H168  1  0.81160000  0.57770000  0.79330000  1
  H  H169  1  0.42230000  0.81160000  0.79330000  1
  H  H170  1  0.18840000  0.42230000  0.79330000  1
  H  H171  1  0.57770000  0.18840000  0.79330000  1
  H  H172  1  0.31160000  0.07770000  0.29330000  1
  H  H173  1  0.92230000  0.31160000  0.29330000  1
  H  H174  1  0.68840000  0.92230000  0.29330000  1
  H  H175  1  0.07770000  0.68840000  0.29330000  1
  C  C176  1  0.11063000  0.54553000  0.17875160  1
  C  C177  1  0.45447000  0.11063000  0.17875160  1
  C  C178  1  0.88937000  0.45447000  0.17875160  1
  C  C179  1  0.54553000  0.88937000  0.17875160  1
  C  C180  1  0.61063000  0.04553000  0.67875160  1
  C  C181  1  0.95447000  0.61063000  0.67875160  1
  C  C182  1  0.38937000  0.95447000  0.67875160  1
  C  C183  1  0.04553000  0.38937000  0.67875160  1
  C  C184  1  0.88937000  0.45447000  0.82124840  1
  C  C185  1  0.54553000  0.88937000  0.82124840  1
  C  C186  1  0.11063000  0.54553000  0.82124840  1
  C  C187  1  0.45447000  0.11063000  0.82124840  1
  C  C188  1  0.38937000  0.95447000  0.32124840  1
  C  C189  1  0.04553000  0.38937000  0.32124840  1
  C  C190  1  0.61063000  0.04553000  0.32124840  1
  C  C191  1  0.95447000  0.61063000  0.32124840  1
  H  H192  1  0.11230000  0.57730000  0.16200000  1
  H  H193  1  0.42270000  0.11230000  0.16200000  1
  H  H194  1  0.88770000  0.42270000  0.16200000  1
  H  H195  1  0.57730000  0.88770000  0.16200000  1
  H  H196  1  0.61230000  0.07730000  0.66200000  1
  H  H197  1  0.92270000  0.61230000  0.66200000  1
  H  H198  1  0.38770000  0.92270000  0.66200000  1
  H  H199  1  0.07730000  0.38770000  0.66200000  1
  H  H200  1  0.88770000  0.42270000  0.83800000  1
  H  H201  1  0.57730000  0.88770000  0.83800000  1
  H  H202  1  0.11230000  0.57730000  0.83800000  1
  H  H203  1  0.42270000  0.11230000  0.83800000  1
  H  H204  1  0.38770000  0.92270000  0.33800000  1
  H  H205  1  0.07730000  0.38770000  0.33800000  1
  H  H206  1  0.61230000  0.07730000  0.33800000  1
  H  H207  1  0.92270000  0.61230000  0.33800000  1
  C  C208  1  0.06043000  0.54453000  0.20122150  1
  C  C209  1  0.45547000  0.06043000  0.20122150  1
  C  C210  1  0.93957000  0.45547000  0.20122150  1
  C  C211  1  0.54453000  0.93957000  0.20122150  1
  C  C212  1  0.56043000  0.04453000  0.70122150  1
  C  C213  1  0.95547000  0.56043000  0.70122150  1
  C  C214  1  0.43957000  0.95547000  0.70122150  1
  C  C215  1  0.04453000  0.43957000  0.70122150  1
  C  C216  1  0.93957000  0.45547000  0.79877850  1
  C  C217  1  0.54453000  0.93957000  0.79877850  1
  C  C218  1  0.06043000  0.54453000  0.79877850  1
  C  C219  1  0.45547000  0.06043000  0.79877850  1
  C  C220  1  0.43957000  0.95547000  0.29877850  1
  C  C221  1  0.04453000  0.43957000  0.29877850  1
  C  C222  1  0.56043000  0.04453000  0.29877850  1
  C  C223  1  0.95547000  0.56043000  0.29877850  1
  H  H224  1  0.02780000  0.57560000  0.19980000  1
  H  H225  1  0.42440000  0.02780000  0.19980000  1
  H  H226  1  0.97220000  0.42440000  0.19980000  1
  H  H227  1  0.57560000  0.97220000  0.19980000  1
  H  H228  1  0.52780000  0.07560000  0.69980000  1
  H  H229  1  0.92440000  0.52780000  0.69980000  1
  H  H230  1  0.47220000  0.92440000  0.69980000  1
  H  H231  1  0.07560000  0.47220000  0.69980000  1
  H  H232  1  0.97220000  0.42440000  0.80020000  1
  H  H233  1  0.57560000  0.97220000  0.80020000  1
  H  H234  1  0.02780000  0.57560000  0.80020000  1
  H  H235  1  0.42440000  0.02780000  0.80020000  1
  H  H236  1  0.47220000  0.92440000  0.30020000  1
  H  H237  1  0.07560000  0.47220000  0.30020000  1
  H  H238  1  0.52780000  0.07560000  0.30020000  1
  H  H239  1  0.92440000  0.52780000  0.30020000  1
  C  C240  1  0.21005000  0.49993170  0.15402000  1
  C  C241  1  0.50006830  0.21005000  0.15402000  1
  C  C242  1  0.78995000  0.50006830  0.15402000  1
  C  C243  1  0.49993170  0.78995000  0.15402000  1
  C  C244  1  0.71005000  0.00000000  0.65402000  1
  C  C245  1  0.00006830  0.71005000  0.65402000  1
  C  C246  1  0.28995000  0.00006830  0.65402000  1
  C  C247  1  0.00000000  0.28995000  0.65402000  1
  C  C248  1  0.78995000  0.50006830  0.84598000  1
  C  C249  1  0.49993170  0.78995000  0.84598000  1
  C  C250  1  0.21005000  0.49993170  0.84598000  1
  C  C251  1  0.50006830  0.21005000  0.84598000  1
  C  C252  1  0.28995000  0.00006830  0.34598000  1
  C  C253  1  0.00000000  0.28995000  0.34598000  1
  C  C254  1  0.71005000  0.00000000  0.34598000  1
  C  C255  1  0.00006830  0.71005000  0.34598000  1
  C  C256  1  0.27065000  0.50084000  0.16282000  1
  C  C257  1  0.49916000  0.27065000  0.16282000  1
  C  C258  1  0.72935000  0.49916000  0.16282000  1
  C  C259  1  0.50084000  0.72935000  0.16282000  1
  C  C260  1  0.77065000  0.00084000  0.66282000  1
  C  C261  1  0.00000000  0.77065000  0.66282000  1
  C  C262  1  0.22935000  0.00000000  0.66282000  1
  C  C263  1  0.00084000  0.22935000  0.66282000  1
  C  C264  1  0.72935000  0.49916000  0.83718000  1
  C  C265  1  0.50084000  0.72935000  0.83718000  1
  C  C266  1  0.27065000  0.50084000  0.83718000  1
  C  C267  1  0.49916000  0.27065000  0.83718000  1
  C  C268  1  0.22935000  0.00000000  0.33718000  1
  C  C269  1  0.00084000  0.22935000  0.33718000  1
  C  C270  1  0.77065000  0.00084000  0.33718000  1
  C  C271  1  0.00000000  0.77065000  0.33718000  1
  H  H272  1  0.28150000  0.50140000  0.18570000  1
  H  H273  1  0.49860000  0.28150000  0.18570000  1
  H  H274  1  0.71850000  0.49860000  0.18570000  1
  H  H275  1  0.50140000  0.71850000  0.18570000  1
  H  H276  1  0.78150000  0.00140000  0.68570000  1
  H  H277  1  0.00000000  0.78150000  0.68570000  1
  H  H278  1  0.21850000  0.00000000  0.68570000  1
  H  H279  1  0.00140000  0.21850000  0.68570000  1
  H  H280  1  0.71850000  0.49860000  0.81430000  1
  H  H281  1  0.50140000  0.71850000  0.81430000  1
  H  H282  1  0.28150000  0.50140000  0.81430000  1
  H  H283  1  0.49860000  0.28150000  0.81430000  1
  H  H284  1  0.21850000  0.00000000  0.31430000  1
  H  H285  1  0.00140000  0.21850000  0.31430000  1
  H  H286  1  0.78150000  0.00140000  0.31430000  1
  H  H287  1  0.00000000  0.78150000  0.31430000  1
  C  C288  1  0.31945000  0.50084000  0.13842000  1
  C  C289  1  0.49916000  0.31945000  0.13842000  1
  C  C290  1  0.68055000  0.49916000  0.13842000  1
  C  C291  1  0.50084000  0.68055000  0.13842000  1
  C  C292  1  0.81945000  0.00084000  0.63842000  1
  C  C293  1  0.00000000  0.81945000  0.63842000  1
  C  C294  1  0.18055000  0.00000000  0.63842000  1
  C  C295  1  0.00084000  0.18055000  0.63842000  1
  C  C296  1  0.68055000  0.49916000  0.86158000  1
  C  C297  1  0.50084000  0.68055000  0.86158000  1
  C  C298  1  0.31945000  0.50084000  0.86158000  1
  C  C299  1  0.49916000  0.31945000  0.86158000  1
  C  C300  1  0.18055000  0.00000000  0.36158000  1
  C  C301  1  0.00084000  0.18055000  0.36158000  1
  C  C302  1  0.81945000  0.00084000  0.36158000  1
  C  C303  1  0.00000000  0.81945000  0.36158000  1
  H  H304  1  0.36280000  0.50140000  0.14490000  1
  H  H305  1  0.49860000  0.36280000  0.14490000  1
  H  H306  1  0.63720000  0.49860000  0.14490000  1
  H  H307  1  0.50140000  0.63720000  0.14490000  1
  H  H308  1  0.86280000  0.00140000  0.64490000  1
  H  H309  1  0.00000000  0.86280000  0.64490000  1
  H  H310  1  0.13720000  0.00000000  0.64490000  1
  H  H311  1  0.00140000  0.13720000  0.64490000  1
  H  H312  1  0.63720000  0.49860000  0.85510000  1
  H  H313  1  0.50140000  0.63720000  0.85510000  1
  H  H314  1  0.36280000  0.50140000  0.85510000  1
  H  H315  1  0.49860000  0.36280000  0.85510000  1
  H  H316  1  0.13720000  0.00000000  0.35510000  1
  H  H317  1  0.00140000  0.13720000  0.35510000  1
  H  H318  1  0.86280000  0.00140000  0.35510000  1
  H  H319  1  0.00000000  0.86280000  0.35510000  1
  C  C320  1  0.30315000  0.49984000  0.10572000  1
  C  C321  1  0.50016000  0.30315000  0.10572000  1
  C  C322  1  0.69685000  0.50016000  0.10572000  1
  C  C323  1  0.49984000  0.69685000  0.10572000  1
  C  C324  1  0.80315000  0.00000000  0.60572000  1
  C  C325  1  0.00016000  0.80315000  0.60572000  1
  C  C326  1  0.19685000  0.00016000  0.60572000  1
  C  C327  1  0.00000000  0.19685000  0.60572000  1
  C  C328  1  0.69685000  0.50016000  0.89428000  1
  C  C329  1  0.49984000  0.69685000  0.89428000  1
  C  C330  1  0.30315000  0.49984000  0.89428000  1
  C  C331  1  0.50016000  0.30315000  0.89428000  1
  C  C332  1  0.19685000  0.00016000  0.39428000  1
  C  C333  1  0.00000000  0.19685000  0.39428000  1
  C  C334  1  0.80315000  0.00000000  0.39428000  1
  C  C335  1  0.00016000  0.80315000  0.39428000  1
  C  C336  1  0.24045000  0.49895000  0.09632000  1
  C  C337  1  0.50105000  0.24045000  0.09632000  1
  C  C338  1  0.75955000  0.50105000  0.09632000  1
  C  C339  1  0.49895000  0.75955000  0.09632000  1
  C  C340  1  0.74045000  0.00000000  0.59632000  1
  C  C341  1  0.00105000  0.74045000  0.59632000  1
  C  C342  1  0.25955000  0.00105000  0.59632000  1
  C  C343  1  0.00000000  0.25955000  0.59632000  1
  C  C344  1  0.75955000  0.50105000  0.90368000  1
  C  C345  1  0.49895000  0.75955000  0.90368000  1
  C  C346  1  0.24045000  0.49895000  0.90368000  1
  C  C347  1  0.50105000  0.24045000  0.90368000  1
  C  C348  1  0.25955000  0.00105000  0.40368000  1
  C  C349  1  0.00000000  0.25955000  0.40368000  1
  C  C350  1  0.74045000  0.00000000  0.40368000  1
  C  C351  1  0.00105000  0.74045000  0.40368000  1
  H  H352  1  0.22890000  0.49830000  0.07340000  1
  H  H353  1  0.50170000  0.22890000  0.07340000  1
  H  H354  1  0.77110000  0.50170000  0.07340000  1
  H  H355  1  0.49830000  0.77110000  0.07340000  1
  H  H356  1  0.72890000  0.00000000  0.57340000  1
  H  H357  1  0.00170000  0.72890000  0.57340000  1
  H  H358  1  0.27110000  0.00170000  0.57340000  1
  H  H359  1  0.00000000  0.27110000  0.57340000  1
  H  H360  1  0.77110000  0.50170000  0.92660000  1
  H  H361  1  0.49830000  0.77110000  0.92660000  1
  H  H362  1  0.22890000  0.49830000  0.92660000  1
  H  H363  1  0.50170000  0.22890000  0.92660000  1
  H  H364  1  0.27110000  0.00170000  0.42660000  1
  H  H365  1  0.00000000  0.27110000  0.42660000  1
  H  H366  1  0.72890000  0.00000000  0.42660000  1
  H  H367  1  0.00170000  0.72890000  0.42660000  1
  C  C368  1  0.19365000  0.49904000  0.12112000  1
  C  C369  1  0.50096000  0.19365000  0.12112000  1
  C  C370  1  0.80635000  0.50096000  0.12112000  1
  C  C371  1  0.49904000  0.80635000  0.12112000  1
  C  C372  1  0.69365000  0.00000000  0.62112000  1
  C  C373  1  0.00096000  0.69365000  0.62112000  1
  C  C374  1  0.30635000  0.00096000  0.62112000  1
  C  C375  1  0.00000000  0.30635000  0.62112000  1
  C  C376  1  0.80635000  0.50096000  0.87888000  1
  C  C377  1  0.49904000  0.80635000  0.87888000  1
  C  C378  1  0.19365000  0.49904000  0.87888000  1
  C  C379  1  0.50096000  0.19365000  0.87888000  1
  C  C380  1  0.30635000  0.00096000  0.37888000  1
  C  C381  1  0.00000000  0.30635000  0.37888000  1
  C  C382  1  0.69365000  0.00000000  0.37888000  1
  C  C383  1  0.00096000  0.69365000  0.37888000  1
  H  H384  1  0.15000000  0.49840000  0.11500000  1
  H  H385  1  0.50160000  0.15000000  0.11500000  1
  H  H386  1  0.85000000  0.50160000  0.11500000  1
  H  H387  1  0.49840000  0.85000000  0.11500000  1
  H  H388  1  0.65000000  0.00000000  0.61500000  1
  H  H389  1  0.00160000  0.65000000  0.61500000  1
  H  H390  1  0.35000000  0.00160000  0.61500000  1
  H  H391  1  0.00000000  0.35000000  0.61500000  1
  H  H392  1  0.85000000  0.50160000  0.88500000  1
  H  H393  1  0.49840000  0.85000000  0.88500000  1
  H  H394  1  0.15000000  0.49840000  0.88500000  1
  H  H395  1  0.50160000  0.15000000  0.88500000  1
  H  H396  1  0.35000000  0.00160000  0.38500000  1
  H  H397  1  0.00000000  0.35000000  0.38500000  1
  H  H398  1  0.65000000  0.00000000  0.38500000  1
  H  H399  1  0.00160000  0.65000000  0.38500000  1
  C  C400  1  0.35424000  0.49855000  0.07882000  1
  C  C401  1  0.50145000  0.35424000  0.07882000  1
  C  C402  1  0.64576000  0.50145000  0.07882000  1
  C  C403  1  0.49855000  0.64576000  0.07882000  1
  C  C404  1  0.85424000  0.00000000  0.57882000  1
  C  C405  1  0.00145000  0.85424000  0.57882000  1
  C  C406  1  0.14576000  0.00145000  0.57882000  1
  C  C407  1  0.00000000  0.14576000  0.57882000  1
  C  C408  1  0.64576000  0.50145000  0.92118000  1
  C  C409  1  0.49855000  0.64576000  0.92118000  1
  C  C410  1  0.35424000  0.49855000  0.92118000  1
  C  C411  1  0.50145000  0.35424000  0.92118000  1
  C  C412  1  0.14576000  0.00145000  0.42118000  1
  C  C413  1  0.00000000  0.14576000  0.42118000  1
  C  C414  1  0.85424000  0.00000000  0.42118000  1
  C  C415  1  0.00145000  0.85424000  0.42118000  1
