# generated using pymatgen
data_MnH12C20N2O5
_symmetry_space_group_name_H-M   'P 1'
_cell_length_a   4.87222000
_cell_length_b   16.69896000
_cell_length_c   19.35406000
_cell_angle_alpha   90.00000000
_cell_angle_beta   90.00000000
_cell_angle_gamma   90.00000000
_symmetry_Int_Tables_number   1
_chemical_formula_structural   MnH12C20N2O5
_chemical_formula_sum   'Mn4 H48 C80 N8 O20'
_cell_volume   1574.66580903
_cell_formula_units_Z   4
loop_
 _symmetry_equiv_pos_site_id
 _symmetry_equiv_pos_as_xyz
  1  'x, y, z'
loop_
 _atom_site_type_symbol
 _atom_site_label
 _atom_site_symmetry_multiplicity
 _atom_site_fract_x
 _atom_site_fract_y
 _atom_site_fract_z
 _atom_site_occupancy
  Mn  Mn0  1  0.95561870  0.19435400  0.44636300  1
  Mn  Mn1  1  0.54438130  0.80564600  0.94636300  1
  Mn  Mn2  1  0.45561870  0.30564600  0.55363700  1
  Mn  Mn3  1  0.04438130  0.69435400  0.05363700  1
  O  O4  1  0.12665000  0.30760170  0.47624130  1
  O  O5  1  0.37335000  0.69239830  0.97624130  1
  O  O6  1  0.62665000  0.19239830  0.52375870  1
  O  O7  1  0.87335000  0.80760170  0.02375870  1
  C  C8  1  0.00998000  0.52202000  0.44482190  1
  C  C9  1  0.49002000  0.47798000  0.94482190  1
  C  C10  1  0.50998000  0.97798000  0.55517810  1
  C  C11  1  0.99002000  0.02202000  0.05517810  1
  C  C12  1  0.80831000  0.54683000  0.49272000  1
  C  C13  1  0.69169000  0.45317000  0.99272000  1
  C  C14  1  0.30831000  0.95317000  0.50728000  1
  C  C15  1  0.19169000  0.04683000  0.00728000  1
  H  H16  1  0.72620000  0.50900000  0.52130000  1
  H  H17  1  0.77380000  0.49100000  0.02130000  1
  H  H18  1  0.22620000  0.99100000  0.47870000  1
  H  H19  1  0.27380000  0.00900000  0.97870000  1
  N  N20  1  0.33087000  0.56402000  0.35319170  1
  N  N21  1  0.16913000  0.43598000  0.85319170  1
  N  N22  1  0.83087000  0.93598000  0.64680830  1
  N  N23  1  0.66913000  0.06402000  0.14680830  1
  N  N24  1  0.74498000  0.40072000  0.29341160  1
  N  N25  1  0.75502000  0.59928000  0.79341160  1
  N  N26  1  0.24498000  0.09928000  0.70658840  1
  N  N27  1  0.25502000  0.90072000  0.20658840  1
  C  C28  1  0.02949000  0.44372000  0.19461190  1
  C  C29  1  0.47051000  0.55628000  0.69461190  1
  C  C30  1  0.52949000  0.05628000  0.80538810  1
  C  C31  1  0.97051000  0.94372000  0.30538810  1
  C  C32  1  0.94449000  0.38622000  0.24545180  1
  C  C33  1  0.55551000  0.61378000  0.74545180  1
  C  C34  1  0.44449000  0.11378000  0.75454820  1
  C  C35  1  0.05551000  0.88622000  0.25454820  1
  C  C36  1  0.24051000  0.42113000  0.14852000  1
  C  C37  1  0.25949000  0.57887000  0.64852000  1
  C  C38  1  0.74051000  0.07887000  0.85148000  1
  C  C39  1  0.75949000  0.92113000  0.35148000  1
  H  H40  1  0.29840000  0.45720000  0.11490000  1
  H  H41  1  0.20160000  0.54280000  0.61490000  1
  H  H42  1  0.79840000  0.04280000  0.88510000  1
  H  H43  1  0.70160000  0.95720000  0.38510000  1
  C  C44  1  0.30469000  0.42702000  0.38801190  1
  C  C45  1  0.19531000  0.57298000  0.88801190  1
  C  C46  1  0.80469000  0.07298000  0.61198810  1
  C  C47  1  0.69531000  0.92702000  0.11198810  1
  H  H48  1  0.37020000  0.37510000  0.38260000  1
  H  H49  1  0.12980000  0.62490000  0.88260000  1
  H  H50  1  0.87020000  0.12490000  0.61740000  1
  H  H51  1  0.62980000  0.87510000  0.11740000  1
  C  C52  1  0.97611000  0.37102000  0.47081170  1
  C  C53  1  0.52389000  0.62898000  0.97081170  1
  C  C54  1  0.47611000  0.12898000  0.52918830  1
  C  C55  1  0.02389000  0.87102000  0.02918830  1
  C  C56  1  0.05251000  0.66192000  0.40832000  1
  C  C57  1  0.44749000  0.33808000  0.90832000  1
  C  C58  1  0.55251000  0.83808000  0.59168000  1
  C  C59  1  0.94749000  0.16192000  0.09168000  1
  H  H60  1  0.13370000  0.70080000  0.38070000  1
  H  H61  1  0.36630000  0.29920000  0.88070000  1
  H  H62  1  0.63370000  0.79920000  0.61930000  1
  H  H63  1  0.86630000  0.20080000  0.11930000  1
  C  C64  1  0.41419000  0.48912000  0.34700190  1
  C  C65  1  0.08581000  0.51088000  0.84700190  1
  C  C66  1  0.91419000  0.01088000  0.65299810  1
  C  C67  1  0.58581000  0.98912000  0.15299810  1
  C  C68  1  0.10398000  0.44202000  0.43545190  1
  C  C69  1  0.39602000  0.55798000  0.93545190  1
  C  C70  1  0.60398000  0.05798000  0.56454810  1
  C  C71  1  0.89602000  0.94202000  0.06454810  1
  C  C72  1  0.13429000  0.58113000  0.40152000  1
  C  C73  1  0.36571000  0.41887000  0.90152000  1
  C  C74  1  0.63429000  0.91887000  0.59848000  1
  C  C75  1  0.86571000  0.08113000  0.09848000  1
  C  C76  1  0.85571000  0.68353000  0.45502000  1
  C  C77  1  0.64429000  0.31647000  0.95502000  1
  C  C78  1  0.35571000  0.81647000  0.54498000  1
  C  C79  1  0.14429000  0.18353000  0.04498000  1
  H  H80  1  0.80310000  0.73680000  0.45880000  1
  H  H81  1  0.69690000  0.26320000  0.95880000  1
  H  H82  1  0.30310000  0.76320000  0.54120000  1
  H  H83  1  0.19690000  0.23680000  0.04120000  1
  C  C84  1  0.69779000  0.53333000  0.24572000  1
  C  C85  1  0.80221000  0.46667000  0.74572000  1
  C  C86  1  0.19779000  0.96667000  0.75428000  1
  C  C87  1  0.30221000  0.03333000  0.25428000  1
  H  H88  1  0.61040000  0.58280000  0.24760000  1
  H  H89  1  0.88960000  0.41720000  0.74760000  1
  H  H90  1  0.11040000  0.91720000  0.75240000  1
  H  H91  1  0.38960000  0.08280000  0.25240000  1
  C  C92  1  0.07259000  0.31003000  0.24682000  1
  C  C93  1  0.42741000  0.68997000  0.74682000  1
  C  C94  1  0.57259000  0.18997000  0.75318000  1
  C  C95  1  0.92741000  0.81003000  0.25318000  1
  H  H96  1  0.01510000  0.27200000  0.27880000  1
  H  H97  1  0.48490000  0.72800000  0.77880000  1
  H  H98  1  0.51510000  0.22800000  0.72120000  1
  H  H99  1  0.98490000  0.77200000  0.22120000  1
  C  C100  1  0.62579000  0.47253000  0.29412000  1
  C  C101  1  0.87421000  0.52747000  0.79412000  1
  C  C102  1  0.12579000  0.02747000  0.70588000  1
  C  C103  1  0.37421000  0.97253000  0.20588000  1
  C  C104  1  0.27891000  0.29163000  0.20182000  1
  C  C105  1  0.22109000  0.70837000  0.70182000  1
  C  C106  1  0.77891000  0.20837000  0.79818000  1
  C  C107  1  0.72109000  0.79163000  0.29818000  1
  H  H108  1  0.36480000  0.24200000  0.20420000  1
  H  H109  1  0.13520000  0.75800000  0.70420000  1
  H  H110  1  0.86480000  0.25800000  0.79580000  1
  H  H111  1  0.63520000  0.74200000  0.29580000  1
  C  C112  1  0.89329000  0.51992000  0.19643190  1
  C  C113  1  0.60671000  0.48008000  0.69643190  1
  C  C114  1  0.39329000  0.98008000  0.80356810  1
  C  C115  1  0.10671000  0.01992000  0.30356810  1
  C  C116  1  0.73219000  0.62523000  0.49762000  1
  C  C117  1  0.76781000  0.37477000  0.00000000  1
  C  C118  1  0.23219000  0.87477000  0.50238000  1
  C  C119  1  0.26781000  0.12523000  0.00238000  1
  H  H120  1  0.59810000  0.64030000  0.52930000  1
  H  H121  1  0.90190000  0.35970000  0.02930000  1
  H  H122  1  0.09810000  0.85970000  0.47070000  1
  H  H123  1  0.40190000  0.14030000  0.97070000  1
  C  C124  1  0.36129000  0.34753000  0.15222000  1
  C  C125  1  0.13871000  0.65247000  0.65222000  1
  C  C126  1  0.86129000  0.15247000  0.84778000  1
  C  C127  1  0.63871000  0.84753000  0.34778000  1
  H  H128  1  0.50000000  0.33430000  0.12120000  1
  H  H129  1  0.00000000  0.66570000  0.62120000  1
  H  H130  1  0.00000000  0.16570000  0.87880000  1
  H  H131  1  0.50000000  0.83430000  0.37880000  1
  O  O132  1  0.73484000  0.37390170  0.49060140  1
  O  O133  1  0.76516000  0.62609830  0.99060140  1
  O  O134  1  0.23484000  0.12609830  0.50939860  1
  O  O135  1  0.26516000  0.87390170  0.00939860  1
  C  C136  1  0.95279000  0.58652000  0.14591190  1
  C  C137  1  0.54721000  0.41348000  0.64591190  1
  C  C138  1  0.45279000  0.91348000  0.85408810  1
  C  C139  1  0.04721000  0.08652000  0.35408810  1
  O  O140  1  0.14536000  0.58036180  0.10317140  1
  O  O141  1  0.35464000  0.41963820  0.60317140  1
  O  O142  1  0.64536000  0.91963820  0.89682860  1
  O  O143  1  0.85464000  0.08036180  0.39682860  1
  O  O144  1  0.80116000  0.64883180  0.14714150  1
  O  O145  1  0.69884000  0.35116820  0.64714150  1
  O  O146  1  0.30116000  0.85116820  0.85285850  1
  O  O147  1  0.19884000  0.14883180  0.35285850  1
