# generated using pymatgen
data_DyH15C15(N2O5)2
_symmetry_space_group_name_H-M   'P 1'
_cell_length_a   10.14143000
_cell_length_b   17.39834000
_cell_length_c   11.36464000
_cell_angle_alpha   90.00000000
_cell_angle_beta   110.08530000
_cell_angle_gamma   90.00000000
_symmetry_Int_Tables_number   1
_chemical_formula_structural   DyH15C15(N2O5)2
_chemical_formula_sum   'Dy4 H60 C60 N16 O40'
_cell_volume   1883.27020520
_cell_formula_units_Z   4
loop_
 _symmetry_equiv_pos_site_id
 _symmetry_equiv_pos_as_xyz
  1  'x, y, z'
loop_
 _atom_site_type_symbol
 _atom_site_label
 _atom_site_symmetry_multiplicity
 _atom_site_fract_x
 _atom_site_fract_y
 _atom_site_fract_z
 _atom_site_occupancy
  Dy  Dy0  1  0.49052919  0.49295610  0.31871817  1
  Dy  Dy1  1  0.50947081  0.99295610  0.18128183  1
  Dy  Dy2  1  0.50947081  0.50704390  0.68128183  1
  Dy  Dy3  1  0.49052919  0.00704390  0.81871817  1
  O  O4  1  0.27173000  0.51421150  0.34433000  1
  O  O5  1  0.72827000  0.01421150  0.15567000  1
  O  O6  1  0.72827000  0.48578850  0.65567000  1
  O  O7  1  0.27173000  0.98578850  0.84433000  1
  O  O8  1  0.29723000  0.46135150  0.12063000  1
  O  O9  1  0.70277000  0.96135150  0.37937000  1
  O  O10  1  0.70277000  0.53864850  0.87937000  1
  O  O11  1  0.29723000  0.03864850  0.62063000  1
  O  O12  1  0.29133000  0.54708140  0.54132000  1
  O  O13  1  0.70867000  0.04708140  0.95868000  1
  O  O14  1  0.70867000  0.45291860  0.45868000  1
  O  O15  1  0.29133000  0.95291860  0.04132000  1
  O  O16  1  0.64333000  0.58257140  0.27492000  1
  O  O17  1  0.35667000  0.08257140  0.22508000  1
  O  O18  1  0.35667000  0.41742860  0.72508000  1
  O  O19  1  0.64333000  0.91742860  0.77492000  1
  O  O20  1  0.58813000  0.43202140  0.18312000  1
  O  O21  1  0.41187000  0.93202140  0.31688000  1
  O  O22  1  0.41187000  0.56797860  0.81688000  1
  O  O23  1  0.58813000  0.06797860  0.68312000  1
  N  N24  1  0.26904000  0.53042000  0.09213000  1
  N  N25  1  0.73096000  0.03042000  0.40787000  1
  N  N26  1  0.73096000  0.46958000  0.90787000  1
  N  N27  1  0.26904000  0.96958000  0.59213000  1
  O  O28  1  0.43963000  0.13926140  0.84258000  1
  O  O29  1  0.56037000  0.63926140  0.65742000  1
  O  O30  1  0.56037000  0.86073860  0.15742000  1
  O  O31  1  0.43963000  0.36073860  0.34258000  1
  O  O32  1  0.47393000  0.08416140  0.02522000  1
  O  O33  1  0.52607000  0.58416140  0.47478000  1
  O  O34  1  0.52607000  0.91583860  0.97478000  1
  O  O35  1  0.47393000  0.41583860  0.52522000  1
  O  O36  1  0.35363000  0.58174150  0.15593000  1
  O  O37  1  0.64637000  0.08174150  0.34407000  1
  O  O38  1  0.64637000  0.41825850  0.84407000  1
  O  O39  1  0.35363000  0.91825850  0.65593000  1
  N  N40  1  0.55323000  0.36314170  0.13043000  1
  N  N41  1  0.44677000  0.86314170  0.36957000  1
  N  N42  1  0.44677000  0.63685830  0.86957000  1
  N  N43  1  0.55323000  0.13685830  0.63043000  1
  N  N44  1  0.78203000  0.57480170  0.30983000  1
  N  N45  1  0.21797000  0.07480170  0.19017000  1
  N  N46  1  0.21797000  0.42519830  0.69017000  1
  N  N47  1  0.78203000  0.92519830  0.80983000  1
  C  C48  1  0.86474000  0.60062000  0.42274000  1
  C  C49  1  0.13526000  0.10062000  0.07726000  1
  C  C50  1  0.13526000  0.39938000  0.57726000  1
  C  C51  1  0.86474000  0.89938000  0.92274000  1
  H  H52  1  0.82490000  0.62550000  0.47480000  1
  H  H53  1  0.17510000  0.12550000  0.02520000  1
  H  H54  1  0.17510000  0.37450000  0.52520000  1
  H  H55  1  0.82490000  0.87450000  0.97480000  1
  C  C56  1  0.46274000  0.14332000  0.95716000  1
  C  C57  1  0.53726000  0.64332000  0.54284000  1
  C  C58  1  0.53726000  0.85668000  0.04284000  1
  C  C59  1  0.46274000  0.35668000  0.45716000  1
  C  C60  1  0.44894000  0.28792000  0.94936000  1
  C  C61  1  0.55106000  0.78792000  0.55064000  1
  C  C62  1  0.55106000  0.71208000  0.05064000  1
  C  C63  1  0.44894000  0.21208000  0.44936000  1
  H  H64  1  0.40140000  0.28480000  0.86350000  1
  H  H65  1  0.59860000  0.78480000  0.63650000  1
  H  H66  1  0.59860000  0.71520000  0.13650000  1
  H  H67  1  0.40140000  0.21520000  0.36350000  1
  C  C68  1  0.98004000  0.53162000  0.26494000  1
  C  C69  1  0.01996000  0.03162000  0.23506000  1
  C  C70  1  0.01996000  0.46838000  0.73506000  1
  C  C71  1  0.98004000  0.96838000  0.76494000  1
  H  H72  1  0.01780000  0.50980000  0.20880000  1
  H  H73  1  0.98220000  0.00980000  0.29120000  1
  H  H74  1  0.98220000  0.49020000  0.79120000  1
  H  H75  1  0.01780000  0.99020000  0.70880000  1
  C  C76  1  0.56244000  0.22792000  0.14744000  1
  C  C77  1  0.43756000  0.72792000  0.35256000  1
  C  C78  1  0.43756000  0.77208000  0.85256000  1
  C  C79  1  0.56244000  0.27208000  0.64744000  1
  H  H80  1  0.59000000  0.18400000  0.19650000  1
  H  H81  1  0.41000000  0.68400000  0.30350000  1
  H  H82  1  0.41000000  0.81600000  0.80350000  1
  H  H83  1  0.59000000  0.31600000  0.69650000  1
  O  O84  1  0.16304000  0.54822000  0.00423000  1
  O  O85  1  0.83696000  0.04822000  0.49577000  1
  O  O86  1  0.83696000  0.45178000  0.00000000  1
  O  O87  1  0.16304000  0.95178000  0.50423000  1
  C  C88  1  0.00754000  0.59042000  0.46134000  1
  C  C89  1  0.99246000  0.09042000  0.03866000  1
  C  C90  1  0.99246000  0.40958000  0.53866000  1
  C  C91  1  0.00754000  0.90958000  0.96134000  1
  H  H92  1  0.06390000  0.60750000  0.54010000  1
  H  H93  1  0.93610000  0.10750000  0.95990000  1
  H  H94  1  0.93610000  0.39250000  0.45990000  1
  H  H95  1  0.06390000  0.89250000  0.04010000  1
  C  C96  1  0.22364000  0.53762000  0.42594000  1
  C  C97  1  0.77636000  0.03762000  0.07406000  1
  C  C98  1  0.77636000  0.46238000  0.57406000  1
  C  C99  1  0.22364000  0.96238000  0.92594000  1
  C  C100  1  0.06824000  0.55452000  0.38294000  1
  C  C101  1  0.93176000  0.05452000  0.11706000  1
  C  C102  1  0.93176000  0.44548000  0.61706000  1
  C  C103  1  0.06824000  0.94548000  0.88294000  1
  C  C104  1  0.59494000  0.29902000  0.20144000  1
  C  C105  1  0.40506000  0.79902000  0.29856000  1
  C  C106  1  0.40506000  0.70098000  0.79856000  1
  C  C107  1  0.59494000  0.20098000  0.70144000  1
  H  H108  1  0.64560000  0.30330000  0.28650000  1
  H  H109  1  0.35440000  0.80330000  0.21350000  1
  H  H110  1  0.35440000  0.69670000  0.71350000  1
  H  H111  1  0.64560000  0.19670000  0.78650000  1
  C  C112  1  0.48864000  0.22092000  0.02044000  1
  C  C113  1  0.51136000  0.72092000  0.47956000  1
  C  C114  1  0.51136000  0.77908000  0.97956000  1
  C  C115  1  0.48864000  0.27908000  0.52044000  1
  C  C116  1  0.83824000  0.54082000  0.23124000  1
  C  C117  1  0.16176000  0.04082000  0.26876000  1
  C  C118  1  0.16176000  0.45918000  0.76876000  1
  C  C119  1  0.83824000  0.95918000  0.73124000  1
  H  H120  1  0.77970000  0.52360000  0.15340000  1
  H  H121  1  0.22030000  0.02360000  0.34660000  1
  H  H122  1  0.22030000  0.47640000  0.84660000  1
  H  H123  1  0.77970000  0.97640000  0.65340000  1
  C  C124  1  0.48034000  0.35812000  0.00694000  1
  C  C125  1  0.51966000  0.85812000  0.49306000  1
  C  C126  1  0.51966000  0.64188000  0.99306000  1
  C  C127  1  0.48034000  0.14188000  0.50694000  1
  H  H128  1  0.45090000  0.40270000  0.96010000  1
  H  H129  1  0.54910000  0.90270000  0.53990000  1
  H  H130  1  0.54910000  0.59730000  0.03990000  1
  H  H131  1  0.45090000  0.09730000  0.46010000  1
