# generated using pymatgen
data_Zn2CdH30(C27O7)2
_symmetry_space_group_name_H-M   'P 1'
_cell_length_a   25.57151800
_cell_length_b   25.57151800
_cell_length_c   12.87201300
_cell_angle_alpha   90.00000000
_cell_angle_beta   90.00000000
_cell_angle_gamma   120.00000000
_symmetry_Int_Tables_number   1
_chemical_formula_structural   Zn2CdH30(C27O7)2
_chemical_formula_sum   'Zn6 Cd3 H90 C162 O42'
_cell_volume   7289.37211293
_cell_formula_units_Z   3
loop_
 _symmetry_equiv_pos_site_id
 _symmetry_equiv_pos_as_xyz
  1  'x, y, z'
loop_
 _atom_site_type_symbol
 _atom_site_label
 _atom_site_symmetry_multiplicity
 _atom_site_fract_x
 _atom_site_fract_y
 _atom_site_fract_z
 _atom_site_occupancy
  Cd  Cd0  1  0.31313300  0.31313300  0.00000000  1
  Cd  Cd1  1  0.68686700  0.00000000  0.66666667  1
  Cd  Cd2  1  0.00000000  0.68686700  0.33333333  1
  Zn  Zn3  1  0.61218700  0.89021500  0.47262100  1
  Zn  Zn4  1  0.10978500  0.72197200  0.13928767  1
  Zn  Zn5  1  0.27802800  0.38781300  0.80595433  1
  Zn  Zn6  1  0.72197200  0.10978500  0.86071233  1
  Zn  Zn7  1  0.38781300  0.27802800  0.19404567  1
  Zn  Zn8  1  0.89021500  0.61218700  0.52737900  1
  O  O9  1  0.28874000  0.21643000  0.99244000  1
  O  O10  1  0.78357000  0.07231000  0.65910667  1
  O  O11  1  0.92769000  0.71126000  0.32577333  1
  O  O12  1  0.07231000  0.78357000  0.34089333  1
  O  O13  1  0.71126000  0.92769000  0.67422667  1
  O  O14  1  0.21643000  0.28874000  0.00756000  1
  O  O15  1  0.54184000  0.88887000  0.53224000  1
  O  O16  1  0.11113000  0.65297000  0.19890667  1
  O  O17  1  0.34703000  0.45816000  0.86557333  1
  O  O18  1  0.65297000  0.11113000  0.80109333  1
  O  O19  1  0.45816000  0.34703000  0.13442667  1
  O  O20  1  0.88887000  0.54184000  0.46776000  1
  O  O21  1  0.98536000  0.66987000  0.50725000  1
  O  O22  1  0.33013000  0.31549000  0.17391667  1
  O  O23  1  0.68451000  0.01464000  0.84058333  1
  O  O24  1  0.31549000  0.33013000  0.82608333  1
  O  O25  1  0.01464000  0.68451000  0.15941667  1
  O  O26  1  0.66987000  0.98536000  0.49275000  1
  O  O27  1  0.35224000  0.20823000  0.10416000  1
  O  O28  1  0.79177000  0.14401000  0.77082667  1
  O  O29  1  0.85599000  0.64776000  0.43749333  1
  O  O30  1  0.14401000  0.79177000  0.22917333  1
  O  O31  1  0.64776000  0.85599000  0.56250667  1
  O  O32  1  0.20823000  0.35224000  0.89584000  1
  O  O33  1  0.58664000  0.93117000  0.68005000  1
  O  O34  1  0.06883000  0.65547000  0.34671667  1
  O  O35  1  0.34453000  0.41336000  0.01338333  1
  O  O36  1  0.65547000  0.06883000  0.65328333  1
  O  O37  1  0.41336000  0.34453000  0.98661667  1
  O  O38  1  0.93117000  0.58664000  0.31995000  1
  C  C39  1  0.27546000  0.87696000  0.71013000  1
  C  C40  1  0.12304000  0.39850000  0.37679667  1
  C  C41  1  0.60150000  0.72454000  0.04346333  1
  C  C42  1  0.39850000  0.12304000  0.62320333  1
  C  C43  1  0.72454000  0.60150000  0.95653667  1
  C  C44  1  0.87696000  0.27546000  0.28987000  1
  H  H45  1  0.27055000  0.84243000  0.67412000  1
  H  H46  1  0.15757000  0.42812000  0.34078667  1
  H  H47  1  0.57188000  0.72945000  0.00745333  1
  H  H48  1  0.42812000  0.15757000  0.65921333  1
  H  H49  1  0.72945000  0.57188000  0.99254667  1
  H  H50  1  0.84243000  0.27055000  0.32588000  1
  C  C51  1  0.38686000  0.91936000  0.71333000  1
  C  C52  1  0.08064000  0.46750000  0.37999667  1
  C  C53  1  0.53250000  0.61314000  0.04666333  1
  C  C54  1  0.46750000  0.08064000  0.62000333  1
  C  C55  1  0.61314000  0.53250000  0.95333667  1
  C  C56  1  0.91936000  0.38686000  0.28667000  1
  C  C57  1  0.48895000  0.91317000  0.65434000  1
  C  C58  1  0.08683000  0.57578000  0.32100667  1
  C  C59  1  0.42422000  0.51105000  0.98767333  1
  C  C60  1  0.57578000  0.08683000  0.67899333  1
  C  C61  1  0.51105000  0.42422000  0.01232667  1
  C  C62  1  0.91317000  0.48895000  0.34566000  1
  C  C63  1  0.43566000  0.94066000  0.77703000  1
  C  C64  1  0.05934000  0.49500000  0.44369667  1
  C  C65  1  0.50500000  0.56434000  0.11036333  1
  C  C66  1  0.49500000  0.05934000  0.55630333  1
  C  C67  1  0.56434000  0.50500000  0.88963667  1
  C  C68  1  0.94066000  0.43566000  0.22297000  1
  H  H69  1  0.43525000  0.95819000  0.84212000  1
  H  H70  1  0.04181000  0.47706000  0.50878667  1
  H  H71  1  0.52294000  0.56475000  0.17545333  1
  H  H72  1  0.47706000  0.04181000  0.49121333  1
  H  H73  1  0.56475000  0.52294000  0.82454667  1
  H  H74  1  0.95819000  0.43525000  0.15788000  1
  O  O75  1  0.94323000  0.67655000  0.64444000  1
  O  O76  1  0.32345000  0.26668000  0.31110667  1
  O  O77  1  0.73332000  0.05677000  0.97777333  1
  O  O78  1  0.26668000  0.32345000  0.68889333  1
  O  O79  1  0.05677000  0.73332000  0.02222667  1
  O  O80  1  0.67655000  0.94323000  0.35556000  1
  C  C81  1  0.48626000  0.93706000  0.74743000  1
  C  C82  1  0.06294000  0.54920000  0.41409667  1
  C  C83  1  0.45080000  0.51374000  0.08076333  1
  C  C84  1  0.54920000  0.06294000  0.58590333  1
  C  C85  1  0.51374000  0.45080000  0.91923667  1
  C  C86  1  0.93706000  0.48626000  0.25257000  1
  H  H87  1  0.51958000  0.95165000  0.79358000  1
  H  H88  1  0.04835000  0.56793000  0.46024667  1
  H  H89  1  0.43207000  0.48042000  0.12691333  1
  H  H90  1  0.56793000  0.04835000  0.53975333  1
  H  H91  1  0.48042000  0.43207000  0.87308667  1
  H  H92  1  0.95165000  0.51958000  0.20642000  1
  C  C93  1  0.33196000  0.92216000  0.74013000  1
  C  C94  1  0.07784000  0.40980000  0.40679667  1
  C  C95  1  0.59020000  0.66804000  0.07346333  1
  C  C96  1  0.40980000  0.07784000  0.59320333  1
  C  C97  1  0.66804000  0.59020000  0.92653667  1
  C  C98  1  0.92216000  0.33196000  0.25987000  1
  C  C99  1  0.22527000  0.88285000  0.73383000  1
  C  C100  1  0.11715000  0.34242000  0.40049667  1
  C  C101  1  0.65758000  0.77473000  0.06716333  1
  C  C102  1  0.34242000  0.11715000  0.59950333  1
  C  C103  1  0.77473000  0.65758000  0.93283667  1
  C  C104  1  0.88285000  0.22527000  0.26617000  1
  C  C105  1  0.33786000  0.06145000  0.94561000  1
  C  C106  1  0.93855000  0.27641000  0.61227667  1
  C  C107  1  0.72359000  0.66214000  0.27894333  1
  C  C108  1  0.27641000  0.93855000  0.38772333  1
  C  C109  1  0.66214000  0.72359000  0.72105667  1
  C  C110  1  0.06145000  0.33786000  0.05439000  1
  H  H111  1  0.36402000  0.04629000  0.96193000  1
  H  H112  1  0.95371000  0.31773000  0.62859667  1
  H  H113  1  0.68227000  0.63598000  0.29526333  1
  H  H114  1  0.31773000  0.95371000  0.37140333  1
  H  H115  1  0.63598000  0.68227000  0.70473667  1
  H  H116  1  0.04629000  0.36402000  0.03807000  1
  C  C117  1  0.05007000  0.74155000  0.63163000  1
  C  C118  1  0.25845000  0.30852000  0.29829667  1
  C  C119  1  0.69148000  0.94993000  0.96496333  1
  C  C120  1  0.30852000  0.25845000  0.70170333  1
  C  C121  1  0.94993000  0.69148000  0.03503667  1
  C  C122  1  0.74155000  0.05007000  0.36837000  1
  C  C123  1  0.31646000  0.19114000  0.02599000  1
  C  C124  1  0.80886000  0.12532000  0.69265667  1
  C  C125  1  0.87468000  0.68354000  0.35932333  1
  C  C126  1  0.12532000  0.80886000  0.30734333  1
  C  C127  1  0.68354000  0.87468000  0.64067667  1
  C  C128  1  0.19114000  0.31646000  0.97401000  1
  C  C129  1  0.33666000  0.97266000  0.79493000  1
  C  C130  1  0.02734000  0.36400000  0.46159667  1
  C  C131  1  0.63600000  0.66334000  0.12826333  1
  C  C132  1  0.36400000  0.02734000  0.53840333  1
  C  C133  1  0.66334000  0.63600000  0.87173667  1
  C  C134  1  0.97266000  0.33666000  0.20507000  1
  H  H135  1  0.37523000  0.00363000  0.81751000  1
  H  H136  1  0.00000000  0.37160000  0.48417667  1
  H  H137  1  0.62840000  0.62477000  0.15084333  1
  H  H138  1  0.37160000  0.00000000  0.51582333  1
  H  H139  1  0.62477000  0.62840000  0.84915667  1
  H  H140  1  0.00363000  0.37523000  0.18249000  1
  C  C141  1  0.28696000  0.97806000  0.81613000  1
  C  C142  1  0.02194000  0.30890000  0.48279667  1
  C  C143  1  0.69110000  0.71304000  0.14946333  1
  C  C144  1  0.30890000  0.02194000  0.51720333  1
  C  C145  1  0.71304000  0.69110000  0.85053667  1
  C  C146  1  0.97806000  0.28696000  0.18387000  1
  C  C147  1  0.10126000  0.75366000  0.57633000  1
  C  C148  1  0.24634000  0.34760000  0.24299667  1
  C  C149  1  0.65240000  0.89874000  0.90966333  1
  C  C150  1  0.34760000  0.24634000  0.75700333  1
  C  C151  1  0.89874000  0.65240000  0.09033667  1
  C  C152  1  0.75366000  0.10126000  0.42367000  1
  H  H153  1  0.09764000  0.73171000  0.51485000  1
  H  H154  1  0.26829000  0.36593000  0.18151667  1
  H  H155  1  0.63407000  0.90236000  0.84818333  1
  H  H156  1  0.36593000  0.26829000  0.81848333  1
  H  H157  1  0.90236000  0.63407000  0.15181667  1
  H  H158  1  0.73171000  0.09764000  0.48515000  1
  C  C159  1  0.38936000  0.89426000  0.61682000  1
  C  C160  1  0.10574000  0.49510000  0.28348667  1
  C  C161  1  0.50490000  0.61064000  0.95015333  1
  C  C162  1  0.49510000  0.10574000  0.71651333  1
  C  C163  1  0.61064000  0.50490000  0.04984667  1
  C  C164  1  0.89426000  0.38936000  0.38318000  1
  H  H165  1  0.35558000  0.87905000  0.57118000  1
  H  H166  1  0.12095000  0.47653000  0.23784667  1
  H  H167  1  0.52347000  0.64442000  0.90451333  1
  H  H168  1  0.47653000  0.12095000  0.76215333  1
  H  H169  1  0.64442000  0.52347000  0.09548667  1
  H  H170  1  0.87905000  0.35558000  0.42882000  1
  C  C171  1  0.29316000  0.03244000  0.86942000  1
  C  C172  1  0.96756000  0.26072000  0.53608667  1
  C  C173  1  0.73928000  0.70684000  0.20275333  1
  C  C174  1  0.26072000  0.96756000  0.46391333  1
  C  C175  1  0.70684000  0.73928000  0.79724667  1
  C  C176  1  0.03244000  0.29316000  0.13058000  1
  C  C177  1  0.54286000  0.91066000  0.62162000  1
  C  C178  1  0.08934000  0.63220000  0.28828667  1
  C  C179  1  0.36780000  0.45714000  0.95495333  1
  C  C180  1  0.63220000  0.08934000  0.71171333  1
  C  C181  1  0.45714000  0.36780000  0.04504667  1
  C  C182  1  0.91066000  0.54286000  0.37838000  1
  C  C183  1  0.16447000  0.83355000  0.69912000  1
  C  C184  1  0.16645000  0.33092000  0.36578667  1
  C  C185  1  0.66908000  0.83553000  0.03245333  1
  C  C186  1  0.33092000  0.16645000  0.63421333  1
  C  C187  1  0.83553000  0.66908000  0.96754667  1
  C  C188  1  0.83355000  0.16447000  0.30088000  1
  C  C189  1  0.34416000  0.11115000  0.00000000  1
  C  C190  1  0.88885000  0.23301000  0.66337667  1
  C  C191  1  0.76699000  0.65584000  0.33004333  1
  C  C192  1  0.23301000  0.88885000  0.33662333  1
  C  C193  1  0.65584000  0.76699000  0.66995667  1
  C  C194  1  0.11115000  0.34416000  0.00329000  1
  H  H195  1  0.37411000  0.12926000  0.04934000  1
  H  H196  1  0.87074000  0.24485000  0.71600667  1
  H  H197  1  0.75515000  0.62589000  0.38267333  1
  H  H198  1  0.24485000  0.87074000  0.28399333  1
  H  H199  1  0.62589000  0.75515000  0.61732667  1
  H  H200  1  0.12926000  0.37411000  0.95066000  1
  C  C201  1  0.23096000  0.93265000  0.78233000  1
  C  C202  1  0.06735000  0.29831000  0.44899667  1
  C  C203  1  0.70169000  0.76904000  0.11566333  1
  C  C204  1  0.29831000  0.06735000  0.55100333  1
  C  C205  1  0.76904000  0.70169000  0.88433667  1
  C  C206  1  0.93265000  0.23096000  0.21767000  1
  H  H207  1  0.19620000  0.93653000  0.79320000  1
  H  H208  1  0.06347000  0.25967000  0.45986667  1
  H  H209  1  0.74033000  0.80380000  0.12653333  1
  H  H210  1  0.25967000  0.06347000  0.54013333  1
  H  H211  1  0.80380000  0.74033000  0.87346667  1
  H  H212  1  0.93653000  0.19620000  0.20680000  1
  C  C219  1  0.11061100  0.81983000  0.75101000  1
  C  C220  1  0.18017000  0.29078100  0.41767667  1
  C  C221  1  0.70921900  0.88938900  0.08434333  1
  C  C222  1  0.29078100  0.18017000  0.58232333  1
  C  C223  1  0.88938900  0.70921900  0.91565667  1
  C  C224  1  0.81983000  0.11061100  0.24899000  1
  H  H225  1  0.11277000  0.84332000  0.80998000  1
  H  H226  1  0.15668000  0.26945000  0.47664667  1
  H  H227  1  0.73055000  0.88723000  0.14331333  1
  H  H228  1  0.26945000  0.15668000  0.52335333  1
  H  H229  1  0.88723000  0.73055000  0.85668667  1
  H  H230  1  0.84332000  0.11277000  0.19002000  1
  C  C231  1  0.43876000  0.89156000  0.58872000  1
  C  C232  1  0.10844000  0.54720000  0.25538667  1
  C  C233  1  0.45280000  0.56124000  0.92205333  1
  C  C234  1  0.54720000  0.10844000  0.74461333  1
  C  C235  1  0.56124000  0.45280000  0.07794667  1
  C  C236  1  0.89156000  0.43876000  0.41128000  1
  H  H237  1  0.43954000  0.87484000  0.52342000  1
  H  H238  1  0.12516000  0.56470000  0.19008667  1
  H  H239  1  0.43530000  0.56046000  0.85675333  1
  H  H240  1  0.56470000  0.12516000  0.80991333  1
  H  H241  1  0.56046000  0.43530000  0.14324667  1
  H  H242  1  0.87484000  0.43954000  0.47658000  1
  C  C243  1  0.30806000  0.13575000  0.97402000  1
  C  C244  1  0.86425000  0.17231000  0.64068667  1
  C  C245  1  0.82769000  0.69194000  0.30735333  1
  C  C246  1  0.17231000  0.86425000  0.35931333  1
  C  C247  1  0.69194000  0.82769000  0.69264667  1
  C  C248  1  0.13575000  0.30806000  0.02598000  1
  C  C249  1  0.15757000  0.79765000  0.61032000  1
  C  C250  1  0.20235000  0.35992000  0.27698667  1
  C  C251  1  0.64008000  0.84243000  0.94365333  1
  C  C252  1  0.35992000  0.20235000  0.72301333  1
  C  C253  1  0.84243000  0.64008000  0.05634667  1
  C  C254  1  0.79765000  0.15757000  0.38968000  1
  H  H255  1  0.19244000  0.80408000  0.57365000  1
  H  H256  1  0.19592000  0.38836000  0.24031667  1
  H  H257  1  0.61164000  0.80756000  0.90698333  1
  H  H258  1  0.38836000  0.19592000  0.75968333  1
  H  H259  1  0.80756000  0.61164000  0.09301667  1
  H  H260  1  0.80408000  0.19244000  0.42635000  1
  C  C261  1  0.05591000  0.77443000  0.72032000  1
  C  C262  1  0.22557000  0.28148000  0.38698667  1
  C  C263  1  0.71852000  0.94409000  0.05365333  1
  C  C264  1  0.28148000  0.22557000  0.61301333  1
  C  C265  1  0.94409000  0.71852000  0.94634667  1
  C  C266  1  0.77443000  0.05591000  0.27968000  1
  H  H267  1  0.02102000  0.76513000  0.76039000  1
  H  H268  1  0.23487000  0.25589000  0.42705667  1
  H  H269  1  0.74411000  0.97898000  0.09372333  1
  H  H270  1  0.25589000  0.23487000  0.57294333  1
  H  H271  1  0.97898000  0.74411000  0.90627667  1
  H  H272  1  0.76513000  0.02102000  0.23961000  1
  C  C273  1  0.99103000  0.69425000  0.59432000  1
  C  C274  1  0.30575000  0.29678000  0.26098667  1
  C  C275  1  0.70322000  0.00897000  0.92765333  1
  C  C276  1  0.29678000  0.30575000  0.73901333  1
  C  C277  1  0.00897000  0.70322000  0.07234667  1
  C  C278  1  0.69425000  0.99103000  0.40568000  1
  C  C279  1  0.25636000  0.05564000  0.84812000  1
  C  C280  1  0.94436000  0.20072000  0.51478667  1
  C  C281  1  0.79928000  0.74364000  0.18145333  1
  C  C282  1  0.20072000  0.94436000  0.48521333  1
  C  C283  1  0.74364000  0.79928000  0.81854667  1
  C  C284  1  0.05564000  0.25636000  0.15188000  1
  H  H285  1  0.22489000  0.03637000  0.79835000  1
  H  H286  1  0.96363000  0.18852000  0.46501667  1
  H  H287  1  0.81148000  0.77511000  0.13168333  1
  H  H288  1  0.18852000  0.96363000  0.53498333  1
  H  H289  1  0.77511000  0.81148000  0.86831667  1
  H  H290  1  0.03637000  0.22489000  0.20165000  1
  C  C291  1  0.26467000  0.10835000  0.90041000  1
  C  C292  1  0.89165000  0.15632000  0.56707667  1
  C  C293  1  0.84368000  0.73533000  0.23374333  1
  C  C294  1  0.15632000  0.89165000  0.43292333  1
  C  C295  1  0.73533000  0.84368000  0.76625667  1
  C  C296  1  0.10835000  0.26467000  0.09959000  1
  H  H297  1  0.23940000  0.12458000  0.88366000  1
  H  H298  1  0.87542000  0.11482000  0.55032667  1
  H  H299  1  0.88518000  0.76060000  0.21699333  1
  H  H300  1  0.11482000  0.87542000  0.44967333  1
  H  H301  1  0.76060000  0.88518000  0.78300667  1
  H  H302  1  0.12458000  0.23940000  0.11634000  1
