# generated using pymatgen
data_GdH27C21(NO4)3
_symmetry_space_group_name_H-M   'P 1'
_cell_length_a   10.52269000
_cell_length_b   11.05459000
_cell_length_c   12.77111100
_cell_angle_alpha   103.82610000
_cell_angle_beta   110.02410000
_cell_angle_gamma   96.60210000
_symmetry_Int_Tables_number   1
_chemical_formula_structural   GdH27C21(NO4)3
_chemical_formula_sum   'Gd2 H54 C42 N6 O24'
_cell_volume   1323.42960110
_cell_formula_units_Z   2
loop_
 _symmetry_equiv_pos_site_id
 _symmetry_equiv_pos_as_xyz
  1  'x, y, z'
loop_
 _atom_site_type_symbol
 _atom_site_label
 _atom_site_symmetry_multiplicity
 _atom_site_fract_x
 _atom_site_fract_y
 _atom_site_fract_z
 _atom_site_occupancy
  Gd  Gd0  1  0.10304018  0.54782517  0.68168217  1
  Gd  Gd1  1  0.89695982  0.45217483  0.31831783  1
  O  O2  1  0.98337000  0.33373000  0.58763000  1
  O  O3  1  0.01663000  0.66627000  0.41237000  1
  O  O4  1  0.92687000  0.27453000  0.39433000  1
  O  O5  1  0.07313000  0.72547000  0.60567000  1
  O  O6  1  0.95494000  0.05284000  0.29173000  1
  O  O7  1  0.04506000  0.94716000  0.70827000  1
  H  H8  1  0.94310000  0.12570000  0.29680000  1
  H  H9  1  0.05690000  0.87430000  0.70320000  1
  O  O10  1  0.15903000  0.49373000  0.51763000  1
  O  O11  1  0.84097000  0.50627000  0.48237000  1
  O  O12  1  0.12563000  0.43003000  0.33173000  1
  O  O13  1  0.87437000  0.56997000  0.66827000  1
  O  O14  1  0.32984000  0.39855000  0.26703000  1
  O  O15  1  0.67016000  0.60145000  0.73297000  1
  H  H16  1  0.24830000  0.39540000  0.25780000  1
  H  H17  1  0.75170000  0.60460000  0.74220000  1
  O  O18  1  0.17553000  0.75443000  0.84843000  1
  O  O19  1  0.82447000  0.24557000  0.15157000  1
  O  O20  1  0.32933000  0.68994000  0.78073000  1
  O  O21  1  0.67067000  0.31006000  0.21927000  1
  O  O22  1  0.23514000  0.98524000  0.00000000  1
  O  O23  1  0.76486000  0.01476000  0.00356000  1
  H  H24  1  0.18400000  0.91650000  0.95330000  1
  H  H25  1  0.81600000  0.08350000  0.04670000  1
  C  C32  1  0.97645000  0.02994000  0.39484000  1
  C  C33  1  0.02355000  0.97006000  0.60516000  1
  C  C34  1  0.97816000  0.12124000  0.49344000  1
  C  C35  1  0.02184000  0.87876000  0.50656000  1
  C  C36  1  0.00136000  0.08844000  0.59584000  1
  C  C37  1  0.00000000  0.91156000  0.40416000  1
  H  H38  1  0.00180000  0.14870000  0.66070000  1
  H  H39  1  0.00000000  0.85130000  0.33930000  1
  C  C40  1  0.96136000  0.25364000  0.49284000  1
  C  C41  1  0.03864000  0.74636000  0.50716000  1
  C  C42  1  0.41104000  0.44925000  0.38254000  1
  C  C43  1  0.58896000  0.55075000  0.61746000  1
  C  C44  1  0.35734000  0.48464000  0.46934000  1
  C  C45  1  0.64266000  0.51536000  0.53066000  1
  C  C46  1  0.44755000  0.53525000  0.58514000  1
  C  C47  1  0.55245000  0.46475000  0.41486000  1
  H  H48  1  0.41180000  0.55930000  0.64240000  1
  H  H49  1  0.58820000  0.44070000  0.35760000  1
  C  C50  1  0.20634000  0.46874000  0.43894000  1
  C  C51  1  0.79366000  0.53126000  0.56106000  1
  C  C52  1  0.36414000  0.98845000  0.00000000  1
  C  C53  1  0.63586000  0.01155000  0.00486000  1
  C  C54  1  0.40014000  0.89094000  0.92644000  1
  C  C55  1  0.59986000  0.10906000  0.07356000  1
  C  C56  1  0.53555000  0.90285000  0.93194000  1
  C  C57  1  0.46445000  0.09715000  0.06806000  1
  H  H58  1  0.55900000  0.83720000  0.88620000  1
  H  H59  1  0.44100000  0.16280000  0.11380000  1
  C  C60  1  0.29535000  0.77164000  0.84674000  1
  C  C61  1  0.70465000  0.22836000  0.15326000  1
