# generated using pymatgen
data_Yb2H37C42(NO4)4
_symmetry_space_group_name_H-M   'P 1'
_cell_length_a   29.85411000
_cell_length_b   20.94596000
_cell_length_c   19.37896000
_cell_angle_alpha   90.00000000
_cell_angle_beta   94.07110000
_cell_angle_gamma   90.00000000
_symmetry_Int_Tables_number   1
_chemical_formula_structural   Yb2H37C42(NO4)4
_chemical_formula_sum   'Yb16 H296 C336 N32 O128'
_cell_volume   12087.53189532
_cell_formula_units_Z   8
loop_
 _symmetry_equiv_pos_site_id
 _symmetry_equiv_pos_as_xyz
  1  'x, y, z'
loop_
 _atom_site_type_symbol
 _atom_site_label
 _atom_site_symmetry_multiplicity
 _atom_site_fract_x
 _atom_site_fract_y
 _atom_site_fract_z
 _atom_site_occupancy
  Yb  Yb0  1  0.72306900  0.82419987  0.94287983  1
  Yb  Yb1  1  0.27693100  0.82419987  0.55712017  1
  Yb  Yb2  1  0.22306900  0.32419987  0.94287983  1
  Yb  Yb3  1  0.77693100  0.32419987  0.55712017  1
  Yb  Yb4  1  0.27693100  0.17580013  0.05712017  1
  Yb  Yb5  1  0.72306900  0.17580013  0.44287983  1
  Yb  Yb6  1  0.77693100  0.67580013  0.05712017  1
  Yb  Yb7  1  0.22306900  0.67580013  0.44287983  1
  Yb  Yb8  1  0.81781988  0.17088014  0.03695018  1
  Yb  Yb9  1  0.18218012  0.17088014  0.46304982  1
  Yb  Yb10  1  0.31781988  0.67088014  0.03695018  1
  Yb  Yb11  1  0.68218012  0.67088014  0.46304982  1
  Yb  Yb12  1  0.18218012  0.82911986  0.96304982  1
  Yb  Yb13  1  0.81781988  0.82911986  0.53695018  1
  Yb  Yb14  1  0.68218012  0.32911986  0.96304982  1
  Yb  Yb15  1  0.31781988  0.32911986  0.53695018  1
  O  O16  1  0.66008000  0.89517000  0.92956000  1
  O  O17  1  0.33992000  0.89517000  0.57044000  1
  O  O18  1  0.16008000  0.39517000  0.92956000  1
  O  O19  1  0.83992000  0.39517000  0.57044000  1
  O  O20  1  0.33992000  0.10483000  0.07044000  1
  O  O21  1  0.66008000  0.10483000  0.42956000  1
  O  O22  1  0.83992000  0.60483000  0.07044000  1
  O  O23  1  0.16008000  0.60483000  0.42956000  1
  O  O24  1  0.72258000  0.92927000  0.98056000  1
  O  O25  1  0.27742000  0.92927000  0.51944000  1
  O  O26  1  0.22258000  0.42927000  0.98056000  1
  O  O27  1  0.77742000  0.42927000  0.51944000  1
  O  O28  1  0.27742000  0.07073000  0.01944000  1
  O  O29  1  0.72258000  0.07073000  0.48056000  1
  O  O30  1  0.77742000  0.57073000  0.01944000  1
  O  O31  1  0.22258000  0.57073000  0.48056000  1
  O  O32  1  0.74298000  0.16013000  0.03334000  1
  O  O33  1  0.25702000  0.16013000  0.46666000  1
  O  O34  1  0.24298000  0.66013000  0.03334000  1
  O  O35  1  0.75702000  0.66013000  0.46666000  1
  O  O36  1  0.25702000  0.83987000  0.96666000  1
  O  O37  1  0.74298000  0.83987000  0.53334000  1
  O  O38  1  0.75702000  0.33987000  0.96666000  1
  O  O39  1  0.24298000  0.33987000  0.53334000  1
  O  O40  1  0.69168000  0.22863000  0.00000000  1
  O  O41  1  0.30832000  0.22863000  0.50343000  1
  O  O42  1  0.19168000  0.72863000  0.00000000  1
  O  O43  1  0.80832000  0.72863000  0.50343000  1
  O  O44  1  0.30832000  0.77137000  0.00343000  1
  O  O45  1  0.69168000  0.77137000  0.49657000  1
  O  O46  1  0.80832000  0.27137000  0.00343000  1
  O  O47  1  0.19168000  0.27137000  0.49657000  1
  O  O48  1  0.37091820  0.27613000  0.61807000  1
  O  O49  1  0.62908180  0.27613000  0.88193000  1
  O  O50  1  0.87091820  0.77613000  0.61807000  1
  O  O51  1  0.12908180  0.77613000  0.88193000  1
  O  O52  1  0.62908180  0.72387000  0.38193000  1
  O  O53  1  0.37091820  0.72387000  0.11807000  1
  O  O54  1  0.12908180  0.22387000  0.38193000  1
  O  O55  1  0.87091820  0.22387000  0.11807000  1
  O  O56  1  0.30283810  0.29143000  0.64707000  1
  O  O57  1  0.69716190  0.29143000  0.85293000  1
  O  O58  1  0.80283810  0.79143000  0.64707000  1
  O  O59  1  0.19716190  0.79143000  0.85293000  1
  O  O60  1  0.69716190  0.70857000  0.35293000  1
  O  O61  1  0.30283810  0.70857000  0.14707000  1
  O  O62  1  0.19716190  0.20857000  0.35293000  1
  O  O63  1  0.80283810  0.20857000  0.14707000  1
  O  O64  1  0.31053820  0.19193000  0.95537000  1
  O  O65  1  0.68946180  0.19193000  0.54463000  1
  O  O66  1  0.81053820  0.69193000  0.95537000  1
  O  O67  1  0.18946180  0.69193000  0.54463000  1
  O  O68  1  0.68946180  0.80807000  0.04463000  1
  O  O69  1  0.31053820  0.80807000  0.45537000  1
  O  O70  1  0.18946180  0.30807000  0.04463000  1
  O  O71  1  0.81053820  0.30807000  0.45537000  1
  O  O72  1  0.26808830  0.25673000  0.88867000  1
  O  O73  1  0.73191170  0.25673000  0.61133000  1
  O  O74  1  0.76808830  0.75673000  0.88867000  1
  O  O75  1  0.23191170  0.75673000  0.61133000  1
  O  O76  1  0.73191170  0.74327000  0.11133000  1
  O  O77  1  0.26808830  0.74327000  0.38867000  1
  O  O78  1  0.23191170  0.24327000  0.11133000  1
  O  O79  1  0.76808830  0.24327000  0.38867000  1
  O  O80  1  0.80878000  0.05693000  0.02514000  1
  O  O81  1  0.19122000  0.05693000  0.47486000  1
  O  O82  1  0.30878000  0.55693000  0.02514000  1
  O  O83  1  0.69122000  0.55693000  0.47486000  1
  O  O84  1  0.19122000  0.94307000  0.97486000  1
  O  O85  1  0.80878000  0.94307000  0.52514000  1
  O  O86  1  0.69122000  0.44307000  0.97486000  1
  O  O87  1  0.30878000  0.44307000  0.52514000  1
  O  O88  1  0.85107000  0.09233000  0.10814000  1
  O  O89  1  0.14893000  0.09233000  0.39186000  1
  O  O90  1  0.35107000  0.59233000  0.10814000  1
  O  O91  1  0.64893000  0.59233000  0.39186000  1
  O  O92  1  0.14893000  0.90767000  0.89186000  1
  O  O93  1  0.85107000  0.90767000  0.60814000  1
  O  O94  1  0.64893000  0.40767000  0.89186000  1
  O  O95  1  0.35107000  0.40767000  0.60814000  1
  O  O96  1  0.78338000  0.81557000  0.01854000  1
  O  O97  1  0.21662000  0.81557000  0.48146000  1
  O  O98  1  0.28338000  0.31557000  0.01854000  1
  O  O99  1  0.71662000  0.31557000  0.48146000  1
  O  O100  1  0.21662000  0.18443000  0.98146000  1
  O  O101  1  0.78338000  0.18443000  0.51854000  1
  O  O102  1  0.71662000  0.68443000  0.98146000  1
  O  O103  1  0.28338000  0.68443000  0.51854000  1
  O  O104  1  0.82674810  0.75657000  0.08763000  1
  O  O105  1  0.17325190  0.75657000  0.41237000  1
  O  O106  1  0.32674810  0.25657000  0.08763000  1
  O  O107  1  0.67325190  0.25657000  0.41237000  1
  O  O108  1  0.17325190  0.24343000  0.91237000  1
  O  O109  1  0.82674810  0.24343000  0.58763000  1
  O  O110  1  0.67325190  0.74343000  0.91237000  1
  O  O111  1  0.32674810  0.74343000  0.58763000  1
  C  C144  1  0.68327000  0.93986000  0.95525000  1
  C  C145  1  0.31673000  0.93986000  0.54475000  1
  C  C146  1  0.18327000  0.43986000  0.95525000  1
  C  C147  1  0.81673000  0.43986000  0.54475000  1
  C  C148  1  0.31673000  0.06014000  0.04475000  1
  C  C149  1  0.68327000  0.06014000  0.45525000  1
  C  C150  1  0.81673000  0.56014000  0.04475000  1
  C  C151  1  0.18327000  0.56014000  0.45525000  1
  C  C152  1  0.66597000  0.00634000  0.95315000  1
  C  C153  1  0.33403000  0.00634000  0.54685000  1
  C  C154  1  0.16597000  0.50634000  0.95315000  1
  C  C155  1  0.83403000  0.50634000  0.54685000  1
  C  C156  1  0.33403000  0.99366000  0.04685000  1
  C  C157  1  0.66597000  0.99366000  0.45315000  1
  C  C158  1  0.83403000  0.49366000  0.04685000  1
  C  C159  1  0.16597000  0.49366000  0.45315000  1
  C  C160  1  0.62317000  0.01954000  0.92335000  1
  C  C161  1  0.37683000  0.01954000  0.57665000  1
  C  C162  1  0.12317000  0.51954000  0.92335000  1
  C  C163  1  0.87683000  0.51954000  0.57665000  1
  C  C164  1  0.37683000  0.98046000  0.07665000  1
  C  C165  1  0.62317000  0.98046000  0.42335000  1
  C  C166  1  0.87683000  0.48046000  0.07665000  1
  C  C167  1  0.12317000  0.48046000  0.42335000  1
  H  H168  1  0.60510000  0.98640000  0.90570000  1
  H  H169  1  0.39490000  0.98640000  0.59430000  1
  H  H170  1  0.10510000  0.48640000  0.90570000  1
  H  H171  1  0.89490000  0.48640000  0.59430000  1
  H  H172  1  0.39490000  0.01360000  0.09430000  1
  H  H173  1  0.60510000  0.01360000  0.40570000  1
  H  H174  1  0.89490000  0.51360000  0.09430000  1
  H  H175  1  0.10510000  0.51360000  0.40570000  1
  C  C176  1  0.60717000  0.08264000  0.91965000  1
  C  C177  1  0.39283000  0.08264000  0.58035000  1
  C  C178  1  0.10717000  0.58264000  0.91965000  1
  C  C179  1  0.89283000  0.58264000  0.58035000  1
  C  C180  1  0.39283000  0.91736000  0.08035000  1
  C  C181  1  0.60717000  0.91736000  0.41965000  1
  C  C182  1  0.89283000  0.41736000  0.08035000  1
  C  C183  1  0.10717000  0.41736000  0.41965000  1
  C  C184  1  0.63487000  0.13184000  0.94595000  1
  C  C185  1  0.36513000  0.13184000  0.55405000  1
  C  C186  1  0.13487000  0.63184000  0.94595000  1
  C  C187  1  0.86513000  0.63184000  0.55405000  1
  C  C188  1  0.36513000  0.86816000  0.05405000  1
  C  C189  1  0.63487000  0.86816000  0.44595000  1
  C  C190  1  0.86513000  0.36816000  0.05405000  1
  C  C191  1  0.13487000  0.36816000  0.44595000  1
  H  H192  1  0.62460000  0.17370000  0.94340000  1
  H  H193  1  0.37540000  0.17370000  0.55660000  1
  H  H194  1  0.12460000  0.67370000  0.94340000  1
  H  H195  1  0.87540000  0.67370000  0.55660000  1
  H  H196  1  0.37540000  0.82630000  0.05660000  1
  H  H197  1  0.62460000  0.82630000  0.44340000  1
  H  H198  1  0.87540000  0.32630000  0.05660000  1
  H  H199  1  0.12460000  0.32630000  0.44340000  1
  C  C200  1  0.67737000  0.11894000  0.97605000  1
  C  C201  1  0.32263000  0.11894000  0.52395000  1
  C  C202  1  0.17737000  0.61894000  0.97605000  1
  C  C203  1  0.82263000  0.61894000  0.52395000  1
  C  C204  1  0.32263000  0.88106000  0.02395000  1
  C  C205  1  0.67737000  0.88106000  0.47605000  1
  C  C206  1  0.82263000  0.38106000  0.02395000  1
  C  C207  1  0.17737000  0.38106000  0.47605000  1
  C  C208  1  0.69307000  0.05674000  0.98085000  1
  C  C209  1  0.30693000  0.05674000  0.51915000  1
  C  C210  1  0.19307000  0.55674000  0.98085000  1
  C  C211  1  0.80693000  0.55674000  0.51915000  1
  C  C212  1  0.30693000  0.94326000  0.01915000  1
  C  C213  1  0.69307000  0.94326000  0.48085000  1
  C  C214  1  0.80693000  0.44326000  0.01915000  1
  C  C215  1  0.19307000  0.44326000  0.48085000  1
  H  H216  1  0.72130000  0.04820000  0.00230000  1
  H  H217  1  0.27870000  0.04820000  0.49770000  1
  H  H218  1  0.22130000  0.54820000  0.00230000  1
  H  H219  1  0.77870000  0.54820000  0.49770000  1
  H  H220  1  0.27870000  0.95180000  0.00000000  1
  H  H221  1  0.72130000  0.95180000  0.50230000  1
  H  H222  1  0.77870000  0.45180000  0.00000000  1
  H  H223  1  0.22130000  0.45180000  0.50230000  1
  C  C224  1  0.70587000  0.17374000  0.00456000  1
  C  C225  1  0.29413000  0.17374000  0.49544000  1
  C  C226  1  0.20587000  0.67374000  0.00456000  1
  C  C227  1  0.79413000  0.67374000  0.49544000  1
  C  C228  1  0.29413000  0.82626000  0.00000000  1
  C  C229  1  0.70587000  0.82626000  0.50456000  1
  C  C230  1  0.79413000  0.32626000  0.00000000  1
  C  C231  1  0.20587000  0.32626000  0.50456000  1
  C  C232  1  0.56317000  0.09654000  0.88865000  1
  C  C233  1  0.43683000  0.09654000  0.61135000  1
  C  C234  1  0.06317000  0.59654000  0.88865000  1
  C  C235  1  0.93683000  0.59654000  0.61135000  1
  C  C236  1  0.43683000  0.90346000  0.11135000  1
  C  C237  1  0.56317000  0.90346000  0.38865000  1
  C  C238  1  0.93683000  0.40346000  0.11135000  1
  C  C239  1  0.06317000  0.40346000  0.38865000  1
  C  C240  1  0.52677000  0.11344000  0.86585000  1
  C  C241  1  0.47323000  0.11344000  0.63415000  1
  C  C242  1  0.02677000  0.61344000  0.86585000  1
  C  C243  1  0.97323000  0.61344000  0.63415000  1
  C  C244  1  0.47323000  0.88656000  0.13415000  1
  C  C245  1  0.52677000  0.88656000  0.36585000  1
  C  C246  1  0.97323000  0.38656000  0.13415000  1
  C  C247  1  0.02677000  0.38656000  0.36585000  1
  C  C248  1  0.48507000  0.13564000  0.84215000  1
  C  C249  1  0.51493000  0.13564000  0.65785000  1
  C  C250  1  0.98507000  0.63564000  0.84215000  1
  C  C251  1  0.01493000  0.63564000  0.65785000  1
  C  C252  1  0.51493000  0.86436000  0.15785000  1
  C  C253  1  0.48507000  0.86436000  0.34215000  1
  C  C254  1  0.01493000  0.36436000  0.15785000  1
  C  C255  1  0.98507000  0.36436000  0.34215000  1
  C  C256  1  0.44877000  0.15634000  0.82285000  1
  C  C257  1  0.55123000  0.15634000  0.67715000  1
  C  C258  1  0.94877000  0.65634000  0.82285000  1
  C  C259  1  0.05123000  0.65634000  0.67715000  1
  C  C260  1  0.55123000  0.84366000  0.17715000  1
  C  C261  1  0.44877000  0.84366000  0.32285000  1
  C  C262  1  0.05123000  0.34366000  0.17715000  1
  C  C263  1  0.94877000  0.34366000  0.32285000  1
  C  C264  1  0.40707000  0.18404000  0.80795000  1
  C  C265  1  0.59293000  0.18404000  0.69205000  1
  C  C266  1  0.90707000  0.68404000  0.80795000  1
  C  C267  1  0.09293000  0.68404000  0.69205000  1
  C  C268  1  0.59293000  0.81596000  0.19205000  1
  C  C269  1  0.40707000  0.81596000  0.30795000  1
  C  C270  1  0.09293000  0.31596000  0.19205000  1
  C  C271  1  0.90707000  0.31596000  0.30795000  1
  C  C272  1  0.39447000  0.21174000  0.74295000  1
  C  C273  1  0.60553000  0.21174000  0.75705000  1
  C  C274  1  0.89447000  0.71174000  0.74295000  1
  C  C275  1  0.10553000  0.71174000  0.75705000  1
  C  C276  1  0.60553000  0.78826000  0.25705000  1
  C  C277  1  0.39447000  0.78826000  0.24295000  1
  C  C278  1  0.10553000  0.28826000  0.25705000  1
  C  C279  1  0.89447000  0.28826000  0.24295000  1
  H  H280  1  0.41430000  0.20940000  0.70810000  1
  H  H281  1  0.58570000  0.20940000  0.79190000  1
  H  H282  1  0.91430000  0.70940000  0.70810000  1
  H  H283  1  0.08570000  0.70940000  0.79190000  1
  H  H284  1  0.58570000  0.79060000  0.29190000  1
  H  H285  1  0.41430000  0.79060000  0.20810000  1
  H  H286  1  0.08570000  0.29060000  0.29190000  1
  H  H287  1  0.91430000  0.29060000  0.20810000  1
  C  C288  1  0.35407000  0.24184000  0.72986000  1
  C  C289  1  0.64593000  0.24184000  0.77014000  1
  C  C290  1  0.85407000  0.74184000  0.72986000  1
  C  C291  1  0.14593000  0.74184000  0.77014000  1
  C  C292  1  0.64593000  0.75816000  0.27014000  1
  C  C293  1  0.35407000  0.75816000  0.22986000  1
  C  C294  1  0.14593000  0.25816000  0.27014000  1
  C  C295  1  0.85407000  0.25816000  0.22986000  1
  C  C296  1  0.32367000  0.24434000  0.78016000  1
  C  C297  1  0.67633000  0.24434000  0.71984000  1
  C  C298  1  0.82367000  0.74434000  0.78016000  1
  C  C299  1  0.17633000  0.74434000  0.71984000  1
  C  C300  1  0.67633000  0.75566000  0.21984000  1
  C  C301  1  0.32367000  0.75566000  0.28016000  1
  C  C302  1  0.17633000  0.25566000  0.21984000  1
  C  C303  1  0.82367000  0.25566000  0.28016000  1
  H  H304  1  0.29610000  0.26410000  0.77060000  1
  H  H305  1  0.70390000  0.26410000  0.72940000  1
  H  H306  1  0.79610000  0.76410000  0.77060000  1
  H  H307  1  0.20390000  0.76410000  0.72940000  1
  H  H308  1  0.70390000  0.73590000  0.22940000  1
  H  H309  1  0.29610000  0.73590000  0.27060000  1
  H  H310  1  0.20390000  0.23590000  0.22940000  1
  H  H311  1  0.79610000  0.23590000  0.27060000  1
  C  C312  1  0.33387000  0.21744000  0.84576000  1
  C  C313  1  0.66613000  0.21744000  0.65424000  1
  C  C314  1  0.83387000  0.71744000  0.84576000  1
  C  C315  1  0.16613000  0.71744000  0.65424000  1
  C  C316  1  0.66613000  0.78256000  0.15424000  1
  C  C317  1  0.33387000  0.78256000  0.34576000  1
  C  C318  1  0.16613000  0.28256000  0.15424000  1
  C  C319  1  0.83387000  0.28256000  0.34576000  1
  C  C320  1  0.37497000  0.18774000  0.85865000  1
  C  C321  1  0.62503000  0.18774000  0.64135000  1
  C  C322  1  0.87497000  0.68774000  0.85865000  1
  C  C323  1  0.12503000  0.68774000  0.64135000  1
  C  C324  1  0.62503000  0.81226000  0.14135000  1
  C  C325  1  0.37497000  0.81226000  0.35865000  1
  C  C326  1  0.12503000  0.31226000  0.14135000  1
  C  C327  1  0.87497000  0.31226000  0.35865000  1
  H  H328  1  0.38190000  0.16960000  0.90200000  1
  H  H329  1  0.61810000  0.16960000  0.59800000  1
  H  H330  1  0.88190000  0.66960000  0.90200000  1
  H  H331  1  0.11810000  0.66960000  0.59800000  1
  H  H332  1  0.61810000  0.83040000  0.09800000  1
  H  H333  1  0.38190000  0.83040000  0.40200000  1
  H  H334  1  0.11810000  0.33040000  0.09800000  1
  H  H335  1  0.88190000  0.33040000  0.40200000  1
  C  C336  1  0.34177000  0.27184000  0.66126000  1
  C  C337  1  0.65823000  0.27184000  0.83874000  1
  C  C338  1  0.84177000  0.77184000  0.66126000  1
  C  C339  1  0.15823000  0.77184000  0.83874000  1
  C  C340  1  0.65823000  0.72816000  0.33874000  1
  C  C341  1  0.34177000  0.72816000  0.16126000  1
  C  C342  1  0.15823000  0.22816000  0.33874000  1
  C  C343  1  0.84177000  0.22816000  0.16126000  1
  C  C344  1  0.30157000  0.22154000  0.90066000  1
  C  C345  1  0.69843000  0.22154000  0.59934000  1
  C  C346  1  0.80157000  0.72154000  0.90066000  1
  C  C347  1  0.19843000  0.72154000  0.59934000  1
  C  C348  1  0.69843000  0.77846000  0.09934000  1
  C  C349  1  0.30157000  0.77846000  0.40066000  1
  C  C350  1  0.19843000  0.27846000  0.09934000  1
  C  C351  1  0.80157000  0.27846000  0.40066000  1
  C  C352  1  0.83607000  0.04624000  0.07376000  1
  C  C353  1  0.16393000  0.04624000  0.42624000  1
  C  C354  1  0.33607000  0.54624000  0.07376000  1
  C  C355  1  0.66393000  0.54624000  0.42624000  1
  C  C356  1  0.16393000  0.95376000  0.92624000  1
  C  C357  1  0.83607000  0.95376000  0.57376000  1
  C  C358  1  0.66393000  0.45376000  0.92624000  1
  C  C359  1  0.33607000  0.45376000  0.57376000  1
  C  C360  1  0.85127000  0.98086000  0.09245000  1
  C  C361  1  0.14873000  0.98086000  0.40755000  1
  C  C362  1  0.35127000  0.48086000  0.09245000  1
  C  C363  1  0.64873000  0.48086000  0.40755000  1
  C  C364  1  0.14873000  0.01914000  0.90755000  1
  C  C365  1  0.85127000  0.01914000  0.59245000  1
  C  C366  1  0.64873000  0.51914000  0.90755000  1
  C  C367  1  0.35127000  0.51914000  0.59245000  1
  C  C368  1  0.82707000  0.92766000  0.06775000  1
  C  C369  1  0.17293000  0.92766000  0.43225000  1
  C  C370  1  0.32707000  0.42766000  0.06775000  1
  C  C371  1  0.67293000  0.42766000  0.43225000  1
  C  C372  1  0.17293000  0.07234000  0.93225000  1
  C  C373  1  0.82707000  0.07234000  0.56775000  1
  C  C374  1  0.67293000  0.57234000  0.93225000  1
  C  C375  1  0.32707000  0.57234000  0.56775000  1
  H  H376  1  0.80120000  0.93300000  0.03890000  1
  H  H377  1  0.19880000  0.93300000  0.46110000  1
  H  H378  1  0.30120000  0.43300000  0.03890000  1
  H  H379  1  0.69880000  0.43300000  0.46110000  1
  H  H380  1  0.19880000  0.06700000  0.96110000  1
  H  H381  1  0.80120000  0.06700000  0.53890000  1
  H  H382  1  0.69880000  0.56700000  0.96110000  1
  H  H383  1  0.30120000  0.56700000  0.53890000  1
  C  C384  1  0.84177000  0.86726000  0.08625000  1
  C  C385  1  0.15823000  0.86726000  0.41375000  1
  C  C386  1  0.34177000  0.36726000  0.08625000  1
  C  C387  1  0.65823000  0.36726000  0.41375000  1
  C  C388  1  0.15823000  0.13274000  0.91375000  1
  C  C389  1  0.84177000  0.13274000  0.58625000  1
  C  C390  1  0.65823000  0.63274000  0.91375000  1
  C  C391  1  0.34177000  0.63274000  0.58625000  1
  C  C392  1  0.88067000  0.85846000  0.12755000  1
  C  C393  1  0.11933000  0.85846000  0.37245000  1
  C  C394  1  0.38067000  0.35846000  0.12755000  1
  C  C395  1  0.61933000  0.35846000  0.37245000  1
  C  C396  1  0.11933000  0.14154000  0.87245000  1
  C  C397  1  0.88067000  0.14154000  0.62755000  1
  C  C398  1  0.61933000  0.64154000  0.87245000  1
  C  C399  1  0.38067000  0.64154000  0.62755000  1
  H  H400  1  0.89040000  0.81760000  0.13960000  1
  H  H401  1  0.10960000  0.81760000  0.36040000  1
  H  H402  1  0.39040000  0.31760000  0.13960000  1
  H  H403  1  0.60960000  0.31760000  0.36040000  1
  H  H404  1  0.10960000  0.18240000  0.86040000  1
  H  H405  1  0.89040000  0.18240000  0.63960000  1
  H  H406  1  0.60960000  0.68240000  0.86040000  1
  H  H407  1  0.39040000  0.68240000  0.63960000  1
  C  C408  1  0.90537000  0.91126000  0.15115000  1
  C  C409  1  0.09463000  0.91126000  0.34885000  1
  C  C410  1  0.40537000  0.41126000  0.15115000  1
  C  C411  1  0.59463000  0.41126000  0.34885000  1
  C  C412  1  0.09463000  0.08874000  0.84885000  1
  C  C413  1  0.90537000  0.08874000  0.65115000  1
  C  C414  1  0.59463000  0.58874000  0.84885000  1
  C  C415  1  0.40537000  0.58874000  0.65115000  1
  C  C416  1  0.88947000  0.97356000  0.13425000  1
  C  C417  1  0.11053000  0.97356000  0.36575000  1
  C  C418  1  0.38947000  0.47356000  0.13425000  1
  C  C419  1  0.61053000  0.47356000  0.36575000  1
  C  C420  1  0.11053000  0.02644000  0.86575000  1
  C  C421  1  0.88947000  0.02644000  0.63425000  1
  C  C422  1  0.61053000  0.52644000  0.86575000  1
  C  C423  1  0.38947000  0.52644000  0.63425000  1
  H  H424  1  0.90510000  0.00920000  0.15160000  1
  H  H425  1  0.09490000  0.00920000  0.34840000  1
  H  H426  1  0.40510000  0.50920000  0.15160000  1
  H  H427  1  0.59490000  0.50920000  0.34840000  1
  H  H428  1  0.09490000  0.99080000  0.84840000  1
  H  H429  1  0.90510000  0.99080000  0.65160000  1
  H  H430  1  0.59490000  0.49080000  0.84840000  1
  H  H431  1  0.40510000  0.49080000  0.65160000  1
  C  C432  1  0.81527000  0.80836000  0.06205000  1
  C  C433  1  0.18473000  0.80836000  0.43795000  1
  C  C434  1  0.31527000  0.30836000  0.06205000  1
  C  C435  1  0.68473000  0.30836000  0.43795000  1
  C  C436  1  0.18473000  0.19164000  0.93795000  1
  C  C437  1  0.81527000  0.19164000  0.56205000  1
  C  C438  1  0.68473000  0.69164000  0.93795000  1
  C  C439  1  0.31527000  0.69164000  0.56205000  1
  C  C440  1  0.94587000  0.90436000  0.19495000  1
  C  C441  1  0.05413000  0.90436000  0.30505000  1
  C  C442  1  0.44587000  0.40436000  0.19495000  1
  C  C443  1  0.55413000  0.40436000  0.30505000  1
  C  C444  1  0.05413000  0.09564000  0.80505000  1
  C  C445  1  0.94587000  0.09564000  0.69495000  1
  C  C446  1  0.55413000  0.59564000  0.80505000  1
  C  C447  1  0.44587000  0.59564000  0.69495000  1
  C  C448  1  0.97977000  0.90236000  0.22915000  1
  C  C449  1  0.02023000  0.90236000  0.27085000  1
  C  C450  1  0.47977000  0.40236000  0.22915000  1
  C  C451  1  0.52023000  0.40236000  0.27085000  1
  C  C452  1  0.02023000  0.09764000  0.77085000  1
  C  C453  1  0.97977000  0.09764000  0.72915000  1
  C  C454  1  0.52023000  0.59764000  0.77085000  1
  C  C455  1  0.47977000  0.59764000  0.72915000  1
