# generated using pymatgen
data_NdH18(CO2)6
_symmetry_space_group_name_H-M   'P 1'
_cell_length_a   8.71652000
_cell_length_b   9.31683000
_cell_length_c   10.33373000
_cell_angle_alpha   86.20620000
_cell_angle_beta   73.04220000
_cell_angle_gamma   63.86230000
_symmetry_Int_Tables_number   1
_chemical_formula_structural   NdH18(CO2)6
_chemical_formula_sum   'Nd2 H36 C12 O24'
_cell_volume   718.72892730
_cell_formula_units_Z   2
loop_
 _symmetry_equiv_pos_site_id
 _symmetry_equiv_pos_as_xyz
  1  'x, y, z'
loop_
 _atom_site_type_symbol
 _atom_site_label
 _atom_site_symmetry_multiplicity
 _atom_site_fract_x
 _atom_site_fract_y
 _atom_site_fract_z
 _atom_site_occupancy
  Nd  Nd0  1  0.75602700  0.00119200  0.48019200  1
  Nd  Nd1  1  0.24397300  0.00000000  0.51980800  1
  O  O2  1  0.88906000  0.15663000  0.54273000  1
  O  O3  1  0.11094000  0.84337000  0.45727000  1
  O  O4  1  0.57596000  0.85504000  0.54904000  1
  O  O5  1  0.42404000  0.14496000  0.45096000  1
  O  O6  1  0.01904000  0.28714000  0.60054000  1
  O  O7  1  0.98096000  0.71286000  0.39946000  1
  O  O8  1  0.40986000  0.72704000  0.60214000  1
  O  O9  1  0.59014000  0.27296000  0.39786000  1
  O  O10  1  0.95135000  0.02265000  0.25334000  1
  O  O11  1  0.04865000  0.97735000  0.74666000  1
  O  O24  1  0.75045000  0.94685000  0.24024000  1
  O  O25  1  0.24955000  0.05315000  0.75976000  1
  C  C26  1  0.88595000  0.28565000  0.57695000  1
  C  C27  1  0.11405000  0.71435000  0.42305000  1
  C  C28  1  0.55804000  0.72785000  0.58125000  1
  C  C29  1  0.44196000  0.27215000  0.41875000  1
  C  C30  1  0.87833000  0.98324000  0.18445000  1
  C  C31  1  0.12167000  0.01676000  0.81555000  1
  C  C32  1  0.72254000  0.43685000  0.58465000  1
  C  C33  1  0.27746000  0.56315000  0.41535000  1
  H  H34  1  0.63094000  0.43505000  0.66425000  1
  H  H35  1  0.36906000  0.56495000  0.33575000  1
  H  H36  1  0.68434000  0.43055000  0.50675000  1
  H  H37  1  0.31566000  0.56945000  0.49325000  1
  C  C38  1  0.71774000  0.57995000  0.58945000  1
  C  C39  1  0.28226000  0.42005000  0.41055000  1
  H  H40  1  0.74054000  0.59235000  0.67355000  1
  H  H41  1  0.25946000  0.40765000  0.32645000  1
  H  H42  1  0.81824000  0.57815000  0.51625000  1
  H  H43  1  0.18176000  0.42185000  0.48375000  1
  C  C44  1  0.94023000  0.97562000  0.03325000  1
  C  C45  1  0.05977000  0.02438000  0.96675000  1
  H  H46  1  0.83453000  0.03608000  0.00385000  1
  H  H47  1  0.16547000  0.96392000  0.00000000  1
  H  H48  1  0.98583000  0.86472000  0.00155000  1
  H  H49  1  0.01417000  0.13528000  0.00000000  1
