# generated using pymatgen
data_Ni6PH3W9C9O52
_symmetry_space_group_name_H-M   'P 1'
_cell_length_a   15.54863000
_cell_length_b   15.54863000
_cell_length_c   26.65261000
_cell_angle_alpha   90.00000000
_cell_angle_beta   90.00000000
_cell_angle_gamma   90.00000000
_symmetry_Int_Tables_number   1
_chemical_formula_structural   Ni6PH3W9C9O52
_chemical_formula_sum   'Ni24 P4 H12 W36 C36 O208'
_cell_volume   6443.53219180
_cell_formula_units_Z   4
loop_
 _symmetry_equiv_pos_site_id
 _symmetry_equiv_pos_as_xyz
  1  'x, y, z'
loop_
 _atom_site_type_symbol
 _atom_site_label
 _atom_site_symmetry_multiplicity
 _atom_site_fract_x
 _atom_site_fract_y
 _atom_site_fract_z
 _atom_site_occupancy
  W  W0  1  0.49299300  0.28806300  0.30774200  1
  W  W1  1  0.50700700  0.71193700  0.80774200  1
  W  W2  1  0.71193700  0.49299300  0.55774200  1
  W  W3  1  0.28806300  0.50700700  0.05774200  1
  W  W4  1  0.31012300  0.28842300  0.38031200  1
  W  W5  1  0.68987700  0.71157700  0.88031200  1
  W  W6  1  0.71157700  0.31012300  0.63031200  1
  W  W7  1  0.28842300  0.68987700  0.13031200  1
  W  W8  1  0.13690300  0.13434300  0.35236200  1
  W  W9  1  0.86309700  0.86565700  0.85236200  1
  W  W10  1  0.86565700  0.13690300  0.60236200  1
  W  W11  1  0.13434300  0.86309700  0.10236200  1
  W  W12  1  0.16221300  0.98769700  0.25752200  1
  W  W13  1  0.83778700  0.01230300  0.75752200  1
  W  W14  1  0.01230300  0.16221300  0.50752200  1
  W  W15  1  0.98769700  0.83778700  0.00752200  1
  W  W16  1  0.35826300  0.98423700  0.18135200  1
  W  W17  1  0.64173700  0.01576300  0.68135200  1
  W  W18  1  0.01576300  0.35826300  0.43135200  1
  W  W19  1  0.98423700  0.64173700  0.93135200  1
  W  W20  1  0.51805300  0.12983300  0.20671200  1
  W  W21  1  0.48194700  0.87016700  0.70671200  1
  W  W22  1  0.87016700  0.51805300  0.45671200  1
  W  W23  1  0.12983300  0.48194700  0.95671200  1
  W  W24  1  0.45878300  0.12369300  0.39134200  1
  W  W25  1  0.54121700  0.87630700  0.89134200  1
  W  W26  1  0.87630700  0.45878300  0.64134200  1
  W  W27  1  0.12369300  0.54121700  0.14134200  1
  W  W28  1  0.28156300  0.96910700  0.36642200  1
  W  W29  1  0.71843700  0.03089300  0.86642200  1
  W  W30  1  0.03089300  0.28156300  0.61642200  1
  W  W31  1  0.96910700  0.71843700  0.11642200  1
  W  W32  1  0.47958300  0.96305700  0.28875200  1
  W  W33  1  0.52041700  0.03694300  0.78875200  1
  W  W34  1  0.03694300  0.47958300  0.53875200  1
  W  W35  1  0.96305700  0.52041700  0.03875200  1
  Ni  Ni36  1  0.45732900  0.34164100  0.17841600  1
  Ni  Ni37  1  0.54267100  0.65835900  0.67841600  1
  Ni  Ni38  1  0.65835900  0.45732900  0.42841600  1
  Ni  Ni39  1  0.34164100  0.54267100  0.92841600  1
  Ni  Ni40  1  0.31456900  0.20836900  0.16225500  1
  Ni  Ni41  1  0.68543100  0.79163100  0.66225500  1
  Ni  Ni42  1  0.79163100  0.31456900  0.41225500  1
  Ni  Ni43  1  0.20836900  0.68543100  0.91225500  1
  Ni  Ni44  1  0.30058900  0.34499900  0.24900500  1
  Ni  Ni45  1  0.69941100  0.65500100  0.74900500  1
  Ni  Ni46  1  0.65500100  0.30058900  0.49900500  1
  Ni  Ni47  1  0.34499900  0.69941100  0.00000000  1
  Ni  Ni48  1  0.17282900  0.08873900  0.13953500  1
  Ni  Ni49  1  0.82717100  0.91126100  0.63953500  1
  Ni  Ni50  1  0.91126100  0.17282900  0.38953500  1
  Ni  Ni51  1  0.08873900  0.82717100  0.88953500  1
  Ni  Ni52  1  0.15223900  0.21418900  0.22863500  1
  Ni  Ni53  1  0.84776100  0.78581100  0.72863500  1
  Ni  Ni54  1  0.78581100  0.15223900  0.47863500  1
  Ni  Ni55  1  0.21418900  0.84776100  0.97863500  1
  Ni  Ni56  1  0.12830900  0.34497900  0.30812500  1
  Ni  Ni57  1  0.87169100  0.65502100  0.80812500  1
  Ni  Ni58  1  0.65502100  0.12830900  0.55812500  1
  Ni  Ni59  1  0.34497900  0.87169100  0.05812500  1
  P  P60  1  0.32886170  0.13971180  0.27881100  1
  P  P61  1  0.67113830  0.86028820  0.77881100  1
  P  P62  1  0.86028820  0.32886170  0.52881100  1
  P  P63  1  0.13971180  0.67113830  0.02881100  1
  O  O64  1  0.32855000  0.33535000  0.17483000  1
  O  O65  1  0.67145000  0.66465000  0.67483000  1
  O  O66  1  0.66465000  0.32855000  0.42483000  1
  O  O67  1  0.33535000  0.67145000  0.92483000  1
  O  O68  1  0.17615000  0.34005000  0.23913000  1
  O  O69  1  0.82385000  0.65995000  0.73913000  1
  O  O70  1  0.65995000  0.17615000  0.48913000  1
  O  O71  1  0.34005000  0.82385000  0.98913000  1
  O  O72  1  0.18585000  0.21124000  0.15743000  1
  O  O73  1  0.81415000  0.78876000  0.65743000  1
  O  O74  1  0.78876000  0.18585000  0.40743000  1
  O  O75  1  0.21124000  0.81415000  0.90743000  1
  O  O76  1  0.42945000  0.33255000  0.25763000  1
  O  O77  1  0.57055000  0.66745000  0.75763000  1
  O  O78  1  0.66745000  0.42945000  0.50763000  1
  O  O79  1  0.33255000  0.57055000  0.00763000  1
  O  O80  1  0.26155000  0.33665000  0.32403000  1
  O  O81  1  0.73845000  0.66335000  0.82403000  1
  O  O82  1  0.66335000  0.26155000  0.57403000  1
  O  O83  1  0.33665000  0.73845000  0.07403000  1
  O  O84  1  0.13375000  0.21455000  0.30363000  1
  O  O85  1  0.86625000  0.78545000  0.80363000  1
  O  O86  1  0.78545000  0.13375000  0.55363000  1
  O  O87  1  0.21455000  0.86625000  0.05363000  1
  O  O88  1  0.14584000  0.08005000  0.21753000  1
  O  O89  1  0.85416000  0.91995000  0.71753000  1
  O  O90  1  0.91995000  0.14584000  0.46753000  1
  O  O91  1  0.08005000  0.85416000  0.96753000  1
  O  O92  1  0.29884000  0.07765000  0.16053000  1
  O  O93  1  0.70116000  0.92235000  0.66053000  1
  O  O94  1  0.92235000  0.29884000  0.41053000  1
  O  O95  1  0.07765000  0.70116000  0.91053000  1
  O  O96  1  0.44465000  0.20595000  0.17893000  1
  O  O97  1  0.55535000  0.79405000  0.67893000  1
  O  O98  1  0.79405000  0.44465000  0.42893000  1
  O  O99  1  0.20595000  0.55535000  0.92893000  1
  O  O100  1  0.28934000  0.20425000  0.24273000  1
  O  O101  1  0.71066000  0.79575000  0.74273000  1
  O  O102  1  0.79575000  0.28934000  0.49273000  1
  O  O103  1  0.20425000  0.71066000  0.99273000  1
  O  O104  1  0.53455000  0.19705000  0.26523000  1
  O  O105  1  0.46545000  0.80295000  0.76523000  1
  O  O106  1  0.80295000  0.53455000  0.51523000  1
  O  O107  1  0.19705000  0.46545000  0.01523000  1
  O  O108  1  0.57995000  0.35665000  0.30963000  1
  O  O109  1  0.42005000  0.64335000  0.80963000  1
  O  O110  1  0.64335000  0.57995000  0.55963000  1
  O  O111  1  0.35665000  0.42005000  0.05963000  1
  O  O112  1  0.37675000  0.18905000  0.32093000  1
  O  O113  1  0.62325000  0.81095000  0.82093000  1
  O  O114  1  0.81095000  0.37675000  0.57093000  1
  O  O115  1  0.18905000  0.62325000  0.07093000  1
  O  O116  1  0.42095000  0.33685000  0.35813000  1
  O  O117  1  0.57905000  0.66315000  0.85813000  1
  O  O118  1  0.66315000  0.42095000  0.60813000  1
  O  O119  1  0.33685000  0.57905000  0.10813000  1
  O  O120  1  0.28406000  0.35786000  0.42773000  1
  O  O121  1  0.71594000  0.64214000  0.92773000  1
  O  O122  1  0.64214000  0.28406000  0.67773000  1
  O  O123  1  0.35786000  0.71594000  0.17773000  1
  O  O124  1  0.22475000  0.20275000  0.38543000  1
  O  O125  1  0.77525000  0.79725000  0.88543000  1
  O  O126  1  0.79725000  0.22475000  0.63543000  1
  O  O127  1  0.20275000  0.77525000  0.13543000  1
  O  O128  1  0.04245000  0.15385000  0.38463000  1
  O  O129  1  0.95755000  0.84615000  0.88463000  1
  O  O130  1  0.84615000  0.04245000  0.63463000  1
  O  O131  1  0.15385000  0.95755000  0.13463000  1
  O  O132  1  0.25865000  0.08325000  0.30273000  1
  O  O133  1  0.74135000  0.91675000  0.80273000  1
  O  O134  1  0.91675000  0.25865000  0.55273000  1
  O  O135  1  0.08325000  0.74135000  0.05273000  1
  O  O136  1  0.09555000  0.04735000  0.30943000  1
  O  O137  1  0.90445000  0.95265000  0.80943000  1
  O  O138  1  0.95265000  0.09555000  0.55943000  1
  O  O139  1  0.04735000  0.90445000  0.05943000  1
  O  O140  1  0.08765000  0.91405000  0.23793000  1
  O  O141  1  0.91235000  0.08595000  0.73793000  1
  O  O142  1  0.08595000  0.08765000  0.48793000  1
  O  O143  1  0.91405000  0.91235000  0.98793000  1
  O  O144  1  0.26345000  0.95265000  0.22383000  1
  O  O145  1  0.73655000  0.04735000  0.72383000  1
  O  O146  1  0.04735000  0.26345000  0.47383000  1
  O  O147  1  0.95265000  0.73655000  0.97383000  1
  O  O148  1  0.35065000  0.91195000  0.13133000  1
  O  O149  1  0.64935000  0.08805000  0.63133000  1
  O  O150  1  0.08805000  0.35065000  0.38133000  1
  O  O151  1  0.91195000  0.64935000  0.88133000  1
  O  O152  1  0.39255000  0.08155000  0.25123000  1
  O  O153  1  0.60745000  0.91845000  0.75123000  1
  O  O154  1  0.91845000  0.39255000  0.50123000  1
  O  O155  1  0.08155000  0.60745000  0.00123000  1
  O  O156  1  0.46435000  0.03905000  0.16543000  1
  O  O157  1  0.53565000  0.96095000  0.66543000  1
  O  O158  1  0.96095000  0.46435000  0.41543000  1
  O  O159  1  0.03905000  0.53565000  0.91543000  1
  O  O160  1  0.61155000  0.14446000  0.17433000  1
  O  O161  1  0.38845000  0.85554000  0.67433000  1
  O  O162  1  0.85554000  0.61155000  0.42433000  1
  O  O163  1  0.14446000  0.38845000  0.92433000  1
  O  O164  1  0.52975000  0.20896000  0.36433000  1
  O  O165  1  0.47025000  0.79104000  0.86433000  1
  O  O166  1  0.79104000  0.52975000  0.61433000  1
  O  O167  1  0.20896000  0.47025000  0.11433000  1
  O  O168  1  0.38535000  0.20915000  0.41753000  1
  O  O169  1  0.61465000  0.79085000  0.91753000  1
  O  O170  1  0.79085000  0.38535000  0.66753000  1
  O  O171  1  0.20915000  0.61465000  0.16753000  1
  O  O172  1  0.18925000  0.03755000  0.38953000  1
  O  O173  1  0.81075000  0.96245000  0.88953000  1
  O  O174  1  0.96245000  0.18925000  0.63953000  1
  O  O175  1  0.03755000  0.81075000  0.13953000  1
  O  O176  1  0.20735000  0.92435000  0.31663000  1
  O  O177  1  0.79265000  0.07565000  0.81663000  1
  O  O178  1  0.07565000  0.20735000  0.56663000  1
  O  O179  1  0.92435000  0.79265000  0.06663000  1
  O  O180  1  0.42795000  0.91825000  0.22973000  1
  O  O181  1  0.57205000  0.08175000  0.72973000  1
  O  O182  1  0.08175000  0.42795000  0.47973000  1
  O  O183  1  0.91825000  0.57205000  0.97973000  1
  O  O184  1  0.55355000  0.02905000  0.24843000  1
  O  O185  1  0.44645000  0.97095000  0.74843000  1
  O  O186  1  0.97095000  0.55355000  0.49843000  1
  O  O187  1  0.02905000  0.44645000  0.00000000  1
  O  O188  1  0.49765000  0.04595000  0.34123000  1
  O  O189  1  0.50235000  0.95405000  0.84123000  1
  O  O190  1  0.95405000  0.49765000  0.59123000  1
  O  O191  1  0.04595000  0.50235000  0.09123000  1
  O  O192  1  0.35995000  0.04805000  0.39433000  1
  O  O193  1  0.64005000  0.95195000  0.89433000  1
  O  O194  1  0.95195000  0.35995000  0.64433000  1
  O  O195  1  0.04805000  0.64005000  0.14433000  1
  O  O196  1  0.37515000  0.93675000  0.32413000  1
  O  O197  1  0.62485000  0.06325000  0.82413000  1
  O  O198  1  0.06325000  0.37515000  0.57413000  1
  O  O199  1  0.93675000  0.62485000  0.07413000  1
  O  O200  1  0.51696000  0.09226000  0.44283000  1
  O  O201  1  0.48304000  0.90774000  0.94283000  1
  O  O202  1  0.90774000  0.51696000  0.69283000  1
  O  O203  1  0.09226000  0.48304000  0.19283000  1
  O  O204  1  0.28276000  0.88864000  0.41023000  1
  O  O205  1  0.71724000  0.11136000  0.91023000  1
  O  O206  1  0.11136000  0.28276000  0.66023000  1
  O  O207  1  0.88864000  0.71724000  0.16023000  1
  O  O208  1  0.54486000  0.87904000  0.30543000  1
  O  O209  1  0.45514000  0.12096000  0.80543000  1
  O  O210  1  0.12096000  0.54486000  0.55543000  1
  O  O211  1  0.87904000  0.45514000  0.05543000  1
  O  O212  1  0.23776000  0.97195000  0.96887000  1
  O  O213  1  0.76224000  0.02805000  0.46887000  1
  O  O214  1  0.02805000  0.23776000  0.21887000  1
  O  O215  1  0.97195000  0.76224000  0.71887000  1
  O  O216  1  0.34106000  0.99195000  0.02703000  1
  O  O217  1  0.65894000  0.00805000  0.52703000  1
  O  O218  1  0.00805000  0.34106000  0.27703000  1
  O  O219  1  0.99195000  0.65894000  0.77703000  1
  O  O220  1  0.21515000  0.11745000  0.06843000  1
  O  O221  1  0.78485000  0.88255000  0.56843000  1
  O  O222  1  0.88255000  0.21515000  0.31843000  1
  O  O223  1  0.11745000  0.78485000  0.81843000  1
  O  O224  1  0.32455000  0.20775000  0.08773000  1
  O  O225  1  0.67545000  0.79225000  0.58773000  1
  O  O226  1  0.79225000  0.32455000  0.33773000  1
  O  O227  1  0.20775000  0.67545000  0.83773000  1
  O  O228  1  0.34436000  0.41745000  0.94227000  1
  O  O229  1  0.65564000  0.58255000  0.44227000  1
  O  O230  1  0.58255000  0.34436000  0.19227000  1
  O  O231  1  0.41745000  0.65564000  0.69227000  1
  O  O232  1  0.36581000  0.36157000  0.86715000  1
  O  O233  1  0.63419000  0.63843000  0.36715000  1
  O  O234  1  0.63843000  0.36581000  0.11715000  1
  O  O235  1  0.36157000  0.63419000  0.61715000  1
  C  C256  1  0.33427000  0.26804000  0.93427000  1
  C  C257  1  0.66573000  0.73196000  0.43427000  1
  C  C258  1  0.73196000  0.33427000  0.18427000  1
  C  C259  1  0.26804000  0.66573000  0.68427000  1
  C  C260  1  0.31356000  0.25694000  0.98457000  1
  C  C261  1  0.68644000  0.74306000  0.48457000  1
  C  C262  1  0.74306000  0.31356000  0.23457000  1
  C  C263  1  0.25694000  0.68644000  0.73457000  1
  H  H264  1  0.30850000  0.30450000  0.00550000  1
  H  H265  1  0.69150000  0.69550000  0.50550000  1
  H  H266  1  0.69550000  0.30850000  0.25550000  1
  H  H267  1  0.30450000  0.69150000  0.75550000  1
  C  C268  1  0.30036000  0.17475000  0.00362000  1
  C  C269  1  0.69964000  0.82525000  0.50362000  1
  C  C270  1  0.82525000  0.30036000  0.25362000  1
  C  C271  1  0.17475000  0.69964000  0.75362000  1
  C  C272  1  0.30796000  0.10364000  0.97227000  1
  C  C273  1  0.69204000  0.89636000  0.47227000  1
  C  C274  1  0.89636000  0.30796000  0.22227000  1
  C  C275  1  0.10364000  0.69204000  0.72227000  1
  C  C276  1  0.32867000  0.11474000  0.92197000  1
  C  C277  1  0.67133000  0.88526000  0.42197000  1
  C  C278  1  0.88526000  0.32867000  0.17197000  1
  C  C279  1  0.11474000  0.67133000  0.67197000  1
  H  H280  1  0.33360000  0.06710000  0.90110000  1
  H  H281  1  0.66640000  0.93290000  0.40110000  1
  H  H282  1  0.93290000  0.33360000  0.15110000  1
  H  H283  1  0.06710000  0.66640000  0.65110000  1
  C  C284  1  0.34177000  0.19685000  0.90298000  1
  C  C285  1  0.65823000  0.80315000  0.40298000  1
  C  C286  1  0.80315000  0.34177000  0.15298000  1
  C  C287  1  0.19685000  0.65823000  0.65298000  1
  H  H288  1  0.35560000  0.20420000  0.86930000  1
  H  H289  1  0.64440000  0.79580000  0.36930000  1
  H  H290  1  0.79580000  0.35560000  0.11930000  1
  H  H291  1  0.20420000  0.64440000  0.61930000  1
  C  C292  1  0.29279000  0.01577000  0.99075000  1
  C  C293  1  0.70721000  0.98423000  0.49075000  1
  C  C294  1  0.98423000  0.29279000  0.24075000  1
  C  C295  1  0.01577000  0.70721000  0.74075000  1
  C  C296  1  0.27728000  0.16527000  0.05744000  1
  C  C297  1  0.72272000  0.83473000  0.55744000  1
  C  C298  1  0.83473000  0.27728000  0.30744000  1
  C  C299  1  0.16527000  0.72272000  0.80744000  1
  C  C300  1  0.34661100  0.35599000  0.91114000  1
  C  C301  1  0.65338900  0.64401000  0.41114000  1
  C  C302  1  0.64401000  0.34661100  0.16114000  1
  C  C303  1  0.35599000  0.65338900  0.66114000  1
