# generated using pymatgen
data_Rb2CoH20(C5O7)2
_symmetry_space_group_name_H-M   'P 1'
_cell_length_a   10.48733000
_cell_length_b   12.59204000
_cell_length_c   12.63605000
_cell_angle_alpha   78.07910000
_cell_angle_beta   66.73310000
_cell_angle_gamma   78.88210000
_symmetry_Int_Tables_number   1
_chemical_formula_structural   Rb2CoH20(C5O7)2
_chemical_formula_sum   'Rb6 Co3 H60 C30 O42'
_cell_volume   1488.38208063
_cell_formula_units_Z   3
loop_
 _symmetry_equiv_pos_site_id
 _symmetry_equiv_pos_as_xyz
  1  'x, y, z'
loop_
 _atom_site_type_symbol
 _atom_site_label
 _atom_site_symmetry_multiplicity
 _atom_site_fract_x
 _atom_site_fract_y
 _atom_site_fract_z
 _atom_site_occupancy
  Rb  Rb0  1  0.33867400  0.31422300  0.40998400  1
  Rb  Rb1  1  0.66132600  0.68577700  0.59001600  1
  Co  Co2  1  0.52255500  0.18986400  0.60984500  1
  Co  Co3  1  0.47744500  0.81013600  0.39015500  1
  Co  Co4  1  0.00000000  0.50000000  0.50000000  1
  O  O5  1  0.12102000  0.46422000  0.33792000  1
  O  O6  1  0.87898000  0.53578000  0.66208000  1
  O  O7  1  0.82818000  0.48612000  0.46622000  1
  O  O8  1  0.17182000  0.51388000  0.53378000  1
  O  O9  1  0.18283000  0.43824000  0.15773000  1
  O  O10  1  0.81717000  0.56176000  0.84227000  1
  O  O11  1  0.69968000  0.47352000  0.36892000  1
  O  O12  1  0.30032000  0.52648000  0.63108000  1
  O  O13  1  0.01223000  0.33082000  0.56852000  1
  O  O14  1  0.98777000  0.66918000  0.43148000  1
  H  H15  1  0.00000000  0.28720000  0.53210000  1
  H  H16  1  0.00170000  0.71280000  0.46790000  1
  H  H17  1  0.06150000  0.30890000  0.61030000  1
  H  H18  1  0.93850000  0.69110000  0.38970000  1
  O  O19  1  0.08732000  0.23102000  0.74632000  1
  O  O20  1  0.91268000  0.76898000  0.25368000  1
  O  O21  1  0.38433000  0.12453000  0.95983000  1
  O  O22  1  0.61567000  0.87547000  0.04017000  1
  O  O23  1  0.47342000  0.20862000  0.77992000  1
  O  O24  1  0.52658000  0.79138000  0.22008000  1
  O  O25  1  0.31332000  0.21372000  0.64412000  1
  O  O26  1  0.68668000  0.78628000  0.35588000  1
  O  O27  1  0.51923000  0.36312000  0.56103000  1
  O  O28  1  0.48077000  0.63688000  0.43897000  1
  H  H29  1  0.44460000  0.40700000  0.58460000  1
  H  H30  1  0.55540000  0.59300000  0.41540000  1
  H  H31  1  0.59560000  0.36660000  0.50260000  1
  H  H32  1  0.40440000  0.63340000  0.49740000  1
  O  O33  1  0.52973000  0.01712000  0.66823000  1
  O  O34  1  0.47027000  0.98288000  0.33177000  1
  H  H35  1  0.45540000  0.98770000  0.66290000  1
  H  H36  1  0.54460000  0.01230000  0.33710000  1
  H  H37  1  0.59870000  0.96920000  0.62830000  1
  H  H38  1  0.40130000  0.03080000  0.37170000  1
  O  O39  1  0.73232000  0.17892000  0.57682000  1
  O  O40  1  0.26768000  0.82108000  0.42318000  1
  O  O41  1  0.57393000  0.16972000  0.44222000  1
  O  O42  1  0.42607000  0.83028000  0.55778000  1
  O  O43  1  0.68963000  0.08543000  0.28903000  1
  O  O44  1  0.31037000  0.91457000  0.71097000  1
  O  O45  1  0.95483000  0.18562000  0.46913000  1
  O  O46  1  0.04517000  0.81438000  0.53087000  1
  C  C47  1  0.81646000  0.47543000  0.37383000  1
  C  C48  1  0.18354000  0.52457000  0.62617000  1
  C  C49  1  0.94146000  0.46473000  0.26303000  1
  C  C50  1  0.05854000  0.53527000  0.73697000  1
  C  C51  1  0.91655000  0.52364000  0.15404000  1
  C  C52  1  0.08345000  0.47636000  0.84596000  1
  H  H53  1  0.82640000  0.56680000  0.16400000  1
  H  H54  1  0.17360000  0.43320000  0.83600000  1
  H  H55  1  0.99490000  0.55390000  0.09020000  1
  H  H56  1  0.00510000  0.44610000  0.90980000  1
  C  C57  1  0.92055000  0.40524000  0.17804000  1
  C  C58  1  0.07945000  0.59476000  0.82196000  1
  H  H59  1  0.00160000  0.36220000  0.12930000  1
  H  H60  1  0.00000000  0.63780000  0.87070000  1
  H  H61  1  0.83310000  0.37520000  0.20310000  1
  H  H62  1  0.16690000  0.62480000  0.79690000  1
  C  C63  1  0.09094000  0.45483000  0.25344000  1
  C  C64  1  0.90906000  0.54517000  0.74656000  1
  C  C65  1  0.21204000  0.20713000  0.74013000  1
  C  C66  1  0.78796000  0.79287000  0.25987000  1
  C  C67  1  0.23633000  0.16683000  0.85193000  1
  C  C68  1  0.76367000  0.83317000  0.14807000  1
  C  C69  1  0.11064000  0.18144000  0.96424000  1
  C  C70  1  0.88936000  0.81856000  0.03576000  1
  H  H71  1  0.12830000  0.19080000  0.03120000  1
  H  H72  1  0.87170000  0.80920000  0.96880000  1
  H  H73  1  0.02520000  0.22270000  0.95760000  1
  H  H74  1  0.97480000  0.77730000  0.04240000  1
  C  C75  1  0.15274000  0.07304000  0.92664000  1
  C  C76  1  0.84726000  0.92696000  0.07336000  1
  H  H77  1  0.09320000  0.04790000  0.89680000  1
  H  H78  1  0.90680000  0.95210000  0.10320000  1
  H  H79  1  0.19640000  0.01600000  0.97040000  1
  H  H80  1  0.80360000  0.98400000  0.02960000  1
  C  C81  1  0.37334000  0.16603000  0.86454000  1
  C  C82  1  0.62666000  0.83397000  0.13546000  1
  C  C83  1  0.68554000  0.12583000  0.37274000  1
  C  C84  1  0.31446000  0.87417000  0.62726000  1
  C  C85  1  0.82243000  0.12143000  0.38713000  1
  C  C86  1  0.17757000  0.87857000  0.61287000  1
  C  C87  1  0.83634000  0.16623000  0.48394000  1
  C  C88  1  0.16366000  0.83377000  0.51606000  1
  C  C89  1  0.92615000  0.02104000  0.35055000  1
  C  C90  1  0.07385000  0.97896000  0.64945000  1
  H  H91  1  0.99000000  0.99390000  0.39120000  1
  H  H92  1  0.01000000  0.00610000  0.60880000  1
  H  H93  1  0.89520000  0.96490000  0.32730000  1
  H  H94  1  0.10480000  0.03510000  0.67270000  1
  C  C95  1  0.94614000  0.12545000  0.27344000  1
  C  C96  1  0.05386000  0.87455000  0.72656000  1
  H  H97  1  0.92780000  0.13340000  0.20250000  1
  H  H98  1  0.07220000  0.86660000  0.79750000  1
  H  H99  1  0.02260000  0.16250000  0.26630000  1
  H  H100  1  0.97740000  0.83750000  0.73370000  1
  Rb  Rb101  1  0.31111400  0.64073300  0.28153400  1
  Rb  Rb102  1  0.68888600  0.35926700  0.71846600  1
  O  O103  1  0.53663000  0.45793000  0.24193000  1
  O  O104  1  0.46337000  0.54207000  0.75807000  1
  H  H105  1  0.59760000  0.46580000  0.17320000  1
  H  H106  1  0.40240000  0.53420000  0.82680000  1
  H  H107  1  0.58650000  0.47060000  0.27590000  1
  H  H108  1  0.41350000  0.52940000  0.72410000  1
  Rb  Rb109  1  0.68265400  0.02735400  0.82522400  1
  Rb  Rb110  1  0.31734600  0.97264600  0.17477600  1
  O  O111  1  0.81463000  0.18683000  0.86013000  1
  O  O112  1  0.18537000  0.81317000  0.13987000  1
  H  H113  1  0.75630000  0.19630000  0.92790000  1
  H  H114  1  0.24370000  0.80370000  0.07210000  1
  H  H115  1  0.89530000  0.20740000  0.83500000  1
  H  H116  1  0.10470000  0.79260000  0.16500000  1
  O  O117  1  0.23373000  0.13373000  0.35294000  1
  O  O118  1  0.76627000  0.86627000  0.64706000  1
  H  H119  1  0.14660000  0.14980000  0.38950000  1
  H  H120  1  0.85340000  0.85020000  0.61050000  1
  H  H121  1  0.27170000  0.16710000  0.28470000  1
  H  H122  1  0.72830000  0.83290000  0.71530000  1
