# generated using pymatgen
data_Zr3H22(C11O4)4
_symmetry_space_group_name_H-M   'P 1'
_cell_length_a   39.38757000
_cell_length_b   39.38757000
_cell_length_c   16.48293000
_cell_angle_alpha   90.00000000
_cell_angle_beta   90.00000000
_cell_angle_gamma   120.00000000
_symmetry_Int_Tables_number   1
_chemical_formula_structural   Zr3H22(C11O4)4
_chemical_formula_sum   'Zr18 H132 C264 O96'
_cell_volume   22145.39453768
_cell_formula_units_Z   6
loop_
 _symmetry_equiv_pos_site_id
 _symmetry_equiv_pos_as_xyz
  1  'x, y, z'
loop_
 _atom_site_type_symbol
 _atom_site_label
 _atom_site_symmetry_multiplicity
 _atom_site_fract_x
 _atom_site_fract_y
 _atom_site_fract_z
 _atom_site_occupancy
  Zr  Zr0  1  0.45526200  0.45526200  0.10665400  1
  Zr  Zr1  1  0.00000000  0.45526200  0.10665400  1
  Zr  Zr2  1  0.54473800  0.00000000  0.10665400  1
  Zr  Zr3  1  0.54473800  0.54473800  0.10665400  1
  Zr  Zr4  1  0.00000000  0.54473800  0.10665400  1
  Zr  Zr5  1  0.45526200  0.00000000  0.10665400  1
  Zr  Zr6  1  0.00000000  0.54473800  0.89334600  1
  Zr  Zr7  1  0.54473800  0.00000000  0.89334600  1
  Zr  Zr8  1  0.45526200  0.45526200  0.89334600  1
  Zr  Zr9  1  0.54473800  0.54473800  0.89334600  1
  Zr  Zr10  1  0.00000000  0.45526200  0.89334600  1
  Zr  Zr11  1  0.45526200  0.00000000  0.89334600  1
  Zr  Zr12  1  0.46402200  0.53598200  0.00000000  1
  Zr  Zr13  1  0.92804000  0.46402200  0.00000000  1
  Zr  Zr14  1  0.46401800  0.92804000  0.00000000  1
  Zr  Zr15  1  0.53597800  0.46401800  0.00000000  1
  Zr  Zr16  1  0.07196000  0.53597800  0.00000000  1
  Zr  Zr17  1  0.53598200  0.07196000  0.00000000  1
  O  O18  1  0.40823150  0.46598160  0.15153000  1
  O  O19  1  0.94224990  0.40823150  0.15153000  1
  O  O20  1  0.53401840  0.94224990  0.15153000  1
  O  O21  1  0.59176850  0.53401840  0.15153000  1
  O  O22  1  0.05775010  0.59176850  0.15153000  1
  O  O23  1  0.46598160  0.05775010  0.15153000  1
  O  O24  1  0.94224990  0.53401840  0.84847000  1
  O  O25  1  0.59176850  0.05775010  0.84847000  1
  O  O26  1  0.46598160  0.40823150  0.84847000  1
  O  O27  1  0.53401840  0.59176850  0.84847000  1
  O  O28  1  0.05775010  0.46598160  0.84847000  1
  O  O29  1  0.40823150  0.94224990  0.84847000  1
  O  O30  1  0.59176850  0.53401840  0.84847000  1
  O  O31  1  0.05775010  0.59176850  0.84847000  1
  O  O32  1  0.46598160  0.05775010  0.84847000  1
  O  O33  1  0.40823150  0.46598160  0.84847000  1
  O  O34  1  0.94224990  0.40823150  0.84847000  1
  O  O35  1  0.53401840  0.94224990  0.84847000  1
  O  O36  1  0.05775010  0.46598160  0.15153000  1
  O  O37  1  0.40823150  0.94224990  0.15153000  1
  O  O38  1  0.53401840  0.59176850  0.15153000  1
  O  O39  1  0.46598160  0.40823150  0.15153000  1
  O  O40  1  0.94224990  0.53401840  0.15153000  1
  O  O41  1  0.59176850  0.05775010  0.15153000  1
  O  O42  1  0.41297130  0.51744150  0.08413000  1
  O  O43  1  0.89552980  0.41297130  0.08413000  1
  O  O44  1  0.48255850  0.89552980  0.08413000  1
  O  O45  1  0.58702870  0.48255850  0.08413000  1
  O  O46  1  0.10447020  0.58702870  0.08413000  1
  O  O47  1  0.51744150  0.10447020  0.08413000  1
  O  O48  1  0.89552980  0.48255850  0.91587000  1
  O  O49  1  0.58702870  0.10447020  0.91587000  1
  O  O50  1  0.51744150  0.41297130  0.91587000  1
  O  O51  1  0.48255850  0.58702870  0.91587000  1
  O  O52  1  0.10447020  0.51744150  0.91587000  1
  O  O53  1  0.41297130  0.89552980  0.91587000  1
  O  O54  1  0.58702870  0.48255850  0.91587000  1
  O  O55  1  0.10447020  0.58702870  0.91587000  1
  O  O56  1  0.51744150  0.10447020  0.91587000  1
  O  O57  1  0.41297130  0.51744150  0.91587000  1
  O  O58  1  0.89552980  0.41297130  0.91587000  1
  O  O59  1  0.48255850  0.89552980  0.91587000  1
  O  O60  1  0.10447020  0.51744150  0.08413000  1
  O  O61  1  0.41297130  0.89552980  0.08413000  1
  O  O62  1  0.48255850  0.58702870  0.08413000  1
  O  O63  1  0.51744150  0.41297130  0.08413000  1
  O  O64  1  0.89552980  0.48255850  0.08413000  1
  O  O65  1  0.58702870  0.10447020  0.08413000  1
  O  O90  1  0.46799110  0.43140120  0.00000000  1
  O  O91  1  0.03658990  0.46799110  0.00000000  1
  O  O92  1  0.56859880  0.03658990  0.00000000  1
  O  O93  1  0.53200890  0.56859880  0.00000000  1
  O  O94  1  0.96341010  0.53200890  0.00000000  1
  O  O95  1  0.43140120  0.96341010  0.00000000  1
  O  O96  1  0.03658990  0.56859880  0.00000000  1
  O  O97  1  0.53200890  0.96341010  0.00000000  1
  O  O98  1  0.43140120  0.46799110  0.00000000  1
  O  O99  1  0.56859880  0.53200890  0.00000000  1
  O  O100  1  0.96341010  0.43140120  0.00000000  1
  O  O101  1  0.46799110  0.03658990  0.00000000  1
  C  C102  1  0.39850190  0.49132000  0.13374000  1
  C  C103  1  0.90718190  0.39850190  0.13374000  1
  C  C104  1  0.50868000  0.90718190  0.13374000  1
  C  C105  1  0.60149810  0.50868000  0.13374000  1
  C  C106  1  0.09281810  0.60149810  0.13374000  1
  C  C107  1  0.49132000  0.09281810  0.13374000  1
  C  C108  1  0.90718190  0.50868000  0.86626000  1
  C  C109  1  0.60149810  0.09281810  0.86626000  1
  C  C110  1  0.49132000  0.39850190  0.86626000  1
  C  C111  1  0.50868000  0.60149810  0.86626000  1
  C  C112  1  0.09281810  0.49132000  0.86626000  1
  C  C113  1  0.39850190  0.90718190  0.86626000  1
  C  C114  1  0.60149810  0.50868000  0.86626000  1
  C  C115  1  0.09281810  0.60149810  0.86626000  1
  C  C116  1  0.49132000  0.09281810  0.86626000  1
  C  C117  1  0.39850190  0.49132000  0.86626000  1
  C  C118  1  0.90718190  0.39850190  0.86626000  1
  C  C119  1  0.50868000  0.90718190  0.86626000  1
  C  C120  1  0.09281810  0.49132000  0.13374000  1
  C  C121  1  0.39850190  0.90718190  0.13374000  1
  C  C122  1  0.50868000  0.60149810  0.13374000  1
  C  C123  1  0.49132000  0.39850190  0.13374000  1
  C  C124  1  0.90718190  0.50868000  0.13374000  1
  C  C125  1  0.60149810  0.09281810  0.13374000  1
  C  C126  1  0.36642000  0.49032000  0.18214000  1
  C  C127  1  0.87610000  0.36642000  0.18214000  1
  C  C128  1  0.50968000  0.87610000  0.18214000  1
  C  C129  1  0.63358000  0.50968000  0.18214000  1
  C  C130  1  0.12390000  0.63358000  0.18214000  1
  C  C131  1  0.49032000  0.12390000  0.18214000  1
  C  C132  1  0.87610000  0.50968000  0.81786000  1
  C  C133  1  0.63358000  0.12390000  0.81786000  1
  C  C134  1  0.49032000  0.36642000  0.81786000  1
  C  C135  1  0.50968000  0.63358000  0.81786000  1
  C  C136  1  0.12390000  0.49032000  0.81786000  1
  C  C137  1  0.36642000  0.87610000  0.81786000  1
  C  C138  1  0.63358000  0.50968000  0.81786000  1
  C  C139  1  0.12390000  0.63358000  0.81786000  1
  C  C140  1  0.49032000  0.12390000  0.81786000  1
  C  C141  1  0.36642000  0.49032000  0.81786000  1
  C  C142  1  0.87610000  0.36642000  0.81786000  1
  C  C143  1  0.50968000  0.87610000  0.81786000  1
  C  C144  1  0.12390000  0.49032000  0.18214000  1
  C  C145  1  0.36642000  0.87610000  0.18214000  1
  C  C146  1  0.50968000  0.63358000  0.18214000  1
  C  C147  1  0.49032000  0.36642000  0.18214000  1
  C  C148  1  0.87610000  0.50968000  0.18214000  1
  C  C149  1  0.63358000  0.12390000  0.18214000  1
  C  C150  1  0.34562000  0.45923000  0.23985000  1
  C  C151  1  0.88639000  0.34562000  0.23985000  1
  C  C152  1  0.54077000  0.88639000  0.23985000  1
  C  C153  1  0.65438000  0.54077000  0.23985000  1
  C  C154  1  0.11361000  0.65438000  0.23985000  1
  C  C155  1  0.45923000  0.11361000  0.23985000  1
  C  C156  1  0.88639000  0.54077000  0.76015000  1
  C  C157  1  0.65438000  0.11361000  0.76015000  1
  C  C158  1  0.45923000  0.34562000  0.76015000  1
  C  C159  1  0.54077000  0.65438000  0.76015000  1
  C  C160  1  0.11361000  0.45923000  0.76015000  1
  C  C161  1  0.34562000  0.88639000  0.76015000  1
  C  C162  1  0.65438000  0.54077000  0.76015000  1
  C  C163  1  0.11361000  0.65438000  0.76015000  1
  C  C164  1  0.45923000  0.11361000  0.76015000  1
  C  C165  1  0.34562000  0.45923000  0.76015000  1
  C  C166  1  0.88639000  0.34562000  0.76015000  1
  C  C167  1  0.54077000  0.88639000  0.76015000  1
  C  C168  1  0.11361000  0.45923000  0.23985000  1
  C  C169  1  0.34562000  0.88639000  0.23985000  1
  C  C170  1  0.54077000  0.65438000  0.23985000  1
  C  C171  1  0.45923000  0.34562000  0.23985000  1
  C  C172  1  0.88639000  0.54077000  0.23985000  1
  C  C173  1  0.65438000  0.11361000  0.23985000  1
  H  H174  1  0.35120000  0.43840000  0.24460000  1
  H  H175  1  0.91280000  0.35120000  0.24460000  1
  H  H176  1  0.56160000  0.91280000  0.24460000  1
  H  H177  1  0.64880000  0.56160000  0.24460000  1
  H  H178  1  0.08720000  0.64880000  0.24460000  1
  H  H179  1  0.43840000  0.08720000  0.24460000  1
  H  H180  1  0.91280000  0.56160000  0.75540000  1
  H  H181  1  0.64880000  0.08720000  0.75540000  1
  H  H182  1  0.43840000  0.35120000  0.75540000  1
  H  H183  1  0.56160000  0.64880000  0.75540000  1
  H  H184  1  0.08720000  0.43840000  0.75540000  1
  H  H185  1  0.35120000  0.91280000  0.75540000  1
  H  H186  1  0.64880000  0.56160000  0.75540000  1
  H  H187  1  0.08720000  0.64880000  0.75540000  1
  H  H188  1  0.43840000  0.08720000  0.75540000  1
  H  H189  1  0.35120000  0.43840000  0.75540000  1
  H  H190  1  0.91280000  0.35120000  0.75540000  1
  H  H191  1  0.56160000  0.91280000  0.75540000  1
  H  H192  1  0.08720000  0.43840000  0.24460000  1
  H  H193  1  0.35120000  0.91280000  0.24460000  1
  H  H194  1  0.56160000  0.64880000  0.24460000  1
  H  H195  1  0.43840000  0.35120000  0.24460000  1
  H  H196  1  0.91280000  0.56160000  0.24460000  1
  H  H197  1  0.64880000  0.08720000  0.24460000  1
  C  C198  1  0.31692000  0.46003000  0.28885000  1
  C  C199  1  0.85689000  0.31692000  0.28885000  1
  C  C200  1  0.53997000  0.85689000  0.28885000  1
  C  C201  1  0.68308000  0.53997000  0.28885000  1
  C  C202  1  0.14311000  0.68308000  0.28885000  1
  C  C203  1  0.46003000  0.14311000  0.28885000  1
  C  C204  1  0.85689000  0.53997000  0.71115000  1
  C  C205  1  0.68308000  0.14311000  0.71115000  1
  C  C206  1  0.46003000  0.31692000  0.71115000  1
  C  C207  1  0.53997000  0.68308000  0.71115000  1
  C  C208  1  0.14311000  0.46003000  0.71115000  1
  C  C209  1  0.31692000  0.85689000  0.71115000  1
  C  C210  1  0.68308000  0.53997000  0.71115000  1
  C  C211  1  0.14311000  0.68308000  0.71115000  1
  C  C212  1  0.46003000  0.14311000  0.71115000  1
  C  C213  1  0.31692000  0.46003000  0.71115000  1
  C  C214  1  0.85689000  0.31692000  0.71115000  1
  C  C215  1  0.53997000  0.85689000  0.71115000  1
  C  C216  1  0.14311000  0.46003000  0.28885000  1
  C  C217  1  0.31692000  0.85689000  0.28885000  1
  C  C218  1  0.53997000  0.68308000  0.28885000  1
  C  C219  1  0.46003000  0.31692000  0.28885000  1
  C  C220  1  0.85689000  0.53997000  0.28885000  1
  C  C221  1  0.68308000  0.14311000  0.28885000  1
  H  H222  1  0.30440000  0.44080000  0.33000000  1
  H  H223  1  0.86360000  0.30440000  0.33000000  1
  H  H224  1  0.55920000  0.86360000  0.33000000  1
  H  H225  1  0.69560000  0.55920000  0.33000000  1
  H  H226  1  0.13640000  0.69560000  0.33000000  1
  H  H227  1  0.44080000  0.13640000  0.33000000  1
  H  H228  1  0.86360000  0.55920000  0.67000000  1
  H  H229  1  0.69560000  0.13640000  0.67000000  1
  H  H230  1  0.44080000  0.30440000  0.67000000  1
  H  H231  1  0.55920000  0.69560000  0.67000000  1
  H  H232  1  0.13640000  0.44080000  0.67000000  1
  H  H233  1  0.30440000  0.86360000  0.67000000  1
  H  H234  1  0.69560000  0.55920000  0.67000000  1
  H  H235  1  0.13640000  0.69560000  0.67000000  1
  H  H236  1  0.44080000  0.13640000  0.67000000  1
  H  H237  1  0.30440000  0.44080000  0.67000000  1
  H  H238  1  0.86360000  0.30440000  0.67000000  1
  H  H239  1  0.55920000  0.86360000  0.67000000  1
  H  H240  1  0.13640000  0.44080000  0.33000000  1
  H  H241  1  0.30440000  0.86360000  0.33000000  1
  H  H242  1  0.55920000  0.69560000  0.33000000  1
  H  H243  1  0.44080000  0.30440000  0.33000000  1
  H  H244  1  0.86360000  0.55920000  0.33000000  1
  H  H245  1  0.69560000  0.13640000  0.33000000  1
  C  C246  1  0.30652000  0.48823000  0.27794000  1
  C  C247  1  0.81829000  0.30652000  0.27794000  1
  C  C248  1  0.51177000  0.81829000  0.27794000  1
  C  C249  1  0.69348000  0.51177000  0.27794000  1
  C  C250  1  0.18171000  0.69348000  0.27794000  1
  C  C251  1  0.48823000  0.18171000  0.27794000  1
  C  C252  1  0.81829000  0.51177000  0.72206000  1
  C  C253  1  0.69348000  0.18171000  0.72206000  1
  C  C254  1  0.48823000  0.30652000  0.72206000  1
  C  C255  1  0.51177000  0.69348000  0.72206000  1
  C  C256  1  0.18171000  0.48823000  0.72206000  1
  C  C257  1  0.30652000  0.81829000  0.72206000  1
  C  C258  1  0.69348000  0.51177000  0.72206000  1
  C  C259  1  0.18171000  0.69348000  0.72206000  1
  C  C260  1  0.48823000  0.18171000  0.72206000  1
  C  C261  1  0.30652000  0.48823000  0.72206000  1
  C  C262  1  0.81829000  0.30652000  0.72206000  1
  C  C263  1  0.51177000  0.81829000  0.72206000  1
  C  C264  1  0.18171000  0.48823000  0.27794000  1
  C  C265  1  0.30652000  0.81829000  0.27794000  1
  C  C266  1  0.51177000  0.69348000  0.27794000  1
  C  C267  1  0.48823000  0.30652000  0.27794000  1
  C  C268  1  0.81829000  0.51177000  0.27794000  1
  C  C269  1  0.69348000  0.18171000  0.27794000  1
  C  C270  1  0.32563000  0.51693000  0.22004000  1
  C  C271  1  0.80870000  0.32563000  0.22004000  1
  C  C272  1  0.48307000  0.80870000  0.22004000  1
  C  C273  1  0.67437000  0.48307000  0.22004000  1
  C  C274  1  0.19130000  0.67437000  0.22004000  1
  C  C275  1  0.51693000  0.19130000  0.22004000  1
  C  C276  1  0.80870000  0.48307000  0.77996000  1
  C  C277  1  0.67437000  0.19130000  0.77996000  1
  C  C278  1  0.51693000  0.32563000  0.77996000  1
  C  C279  1  0.48307000  0.67437000  0.77996000  1
  C  C280  1  0.19130000  0.51693000  0.77996000  1
  C  C281  1  0.32563000  0.80870000  0.77996000  1
  C  C282  1  0.67437000  0.48307000  0.77996000  1
  C  C283  1  0.19130000  0.67437000  0.77996000  1
  C  C284  1  0.51693000  0.19130000  0.77996000  1
  C  C285  1  0.32563000  0.51693000  0.77996000  1
  C  C286  1  0.80870000  0.32563000  0.77996000  1
  C  C287  1  0.48307000  0.80870000  0.77996000  1
  C  C288  1  0.19130000  0.51693000  0.22004000  1
  C  C289  1  0.32563000  0.80870000  0.22004000  1
  C  C290  1  0.48307000  0.67437000  0.22004000  1
  C  C291  1  0.51693000  0.32563000  0.22004000  1
  C  C292  1  0.80870000  0.48307000  0.22004000  1
  C  C293  1  0.67437000  0.19130000  0.22004000  1
  H  H294  1  0.31860000  0.53650000  0.21210000  1
  H  H295  1  0.78210000  0.31860000  0.21210000  1
  H  H296  1  0.46350000  0.78210000  0.21210000  1
  H  H297  1  0.68140000  0.46350000  0.21210000  1
  H  H298  1  0.21790000  0.68140000  0.21210000  1
  H  H299  1  0.53650000  0.21790000  0.21210000  1
  H  H300  1  0.78210000  0.46350000  0.78790000  1
  H  H301  1  0.68140000  0.21790000  0.78790000  1
  H  H302  1  0.53650000  0.31860000  0.78790000  1
  H  H303  1  0.46350000  0.68140000  0.78790000  1
  H  H304  1  0.21790000  0.53650000  0.78790000  1
  H  H305  1  0.31860000  0.78210000  0.78790000  1
  H  H306  1  0.68140000  0.46350000  0.78790000  1
  H  H307  1  0.21790000  0.68140000  0.78790000  1
  H  H308  1  0.53650000  0.21790000  0.78790000  1
  H  H309  1  0.31860000  0.53650000  0.78790000  1
  H  H310  1  0.78210000  0.31860000  0.78790000  1
  H  H311  1  0.46350000  0.78210000  0.78790000  1
  H  H312  1  0.21790000  0.53650000  0.21210000  1
  H  H313  1  0.31860000  0.78210000  0.21210000  1
  H  H314  1  0.46350000  0.68140000  0.21210000  1
  H  H315  1  0.53650000  0.31860000  0.21210000  1
  H  H316  1  0.78210000  0.46350000  0.21210000  1
  H  H317  1  0.68140000  0.21790000  0.21210000  1
  C  C318  1  0.35463000  0.51683000  0.17415000  1
  C  C319  1  0.83780000  0.35463000  0.17415000  1
  C  C320  1  0.48317000  0.83780000  0.17415000  1
  C  C321  1  0.64537000  0.48317000  0.17415000  1
  C  C322  1  0.16220000  0.64537000  0.17415000  1
  C  C323  1  0.51683000  0.16220000  0.17415000  1
  C  C324  1  0.83780000  0.48317000  0.82585000  1
  C  C325  1  0.64537000  0.16220000  0.82585000  1
  C  C326  1  0.51683000  0.35463000  0.82585000  1
  C  C327  1  0.48317000  0.64537000  0.82585000  1
  C  C328  1  0.16220000  0.51683000  0.82585000  1
  C  C329  1  0.35463000  0.83780000  0.82585000  1
  C  C330  1  0.64537000  0.48317000  0.82585000  1
  C  C331  1  0.16220000  0.64537000  0.82585000  1
  C  C332  1  0.51683000  0.16220000  0.82585000  1
  C  C333  1  0.35463000  0.51683000  0.82585000  1
  C  C334  1  0.83780000  0.35463000  0.82585000  1
  C  C335  1  0.48317000  0.83780000  0.82585000  1
  C  C336  1  0.16220000  0.51683000  0.17415000  1
  C  C337  1  0.35463000  0.83780000  0.17415000  1
  C  C338  1  0.48317000  0.64537000  0.17415000  1
  C  C339  1  0.51683000  0.35463000  0.17415000  1
  C  C340  1  0.83780000  0.48317000  0.17415000  1
  C  C341  1  0.64537000  0.16220000  0.17415000  1
  H  H342  1  0.36710000  0.53670000  0.13410000  1
  H  H343  1  0.83040000  0.36710000  0.13410000  1
  H  H344  1  0.46330000  0.83040000  0.13410000  1
  H  H345  1  0.63290000  0.46330000  0.13410000  1
  H  H346  1  0.16960000  0.63290000  0.13410000  1
  H  H347  1  0.53670000  0.16960000  0.13410000  1
  H  H348  1  0.83040000  0.46330000  0.86590000  1
  H  H349  1  0.63290000  0.16960000  0.86590000  1
  H  H350  1  0.53670000  0.36710000  0.86590000  1
  H  H351  1  0.46330000  0.63290000  0.86590000  1
  H  H352  1  0.16960000  0.53670000  0.86590000  1
  H  H353  1  0.36710000  0.83040000  0.86590000  1
  H  H354  1  0.63290000  0.46330000  0.86590000  1
  H  H355  1  0.16960000  0.63290000  0.86590000  1
  H  H356  1  0.53670000  0.16960000  0.86590000  1
  H  H357  1  0.36710000  0.53670000  0.86590000  1
  H  H358  1  0.83040000  0.36710000  0.86590000  1
  H  H359  1  0.46330000  0.83040000  0.86590000  1
  H  H360  1  0.16960000  0.53670000  0.13410000  1
  H  H361  1  0.36710000  0.83040000  0.13410000  1
  H  H362  1  0.46330000  0.63290000  0.13410000  1
  H  H363  1  0.53670000  0.36710000  0.13410000  1
  H  H364  1  0.83040000  0.46330000  0.13410000  1
  H  H365  1  0.63290000  0.16960000  0.13410000  1
  C  C366  1  0.27522000  0.48893000  0.32694000  1
  C  C367  1  0.78629000  0.27522000  0.32694000  1
  C  C368  1  0.51107000  0.78629000  0.32694000  1
  C  C369  1  0.72478000  0.51107000  0.32694000  1
  C  C370  1  0.21371000  0.72478000  0.32694000  1
  C  C371  1  0.48893000  0.21371000  0.32694000  1
  C  C372  1  0.78629000  0.51107000  0.67306000  1
  C  C373  1  0.72478000  0.21371000  0.67306000  1
  C  C374  1  0.48893000  0.27522000  0.67306000  1
  C  C375  1  0.51107000  0.72478000  0.67306000  1
  C  C376  1  0.21371000  0.48893000  0.67306000  1
  C  C377  1  0.27522000  0.78629000  0.67306000  1
  C  C378  1  0.72478000  0.51107000  0.67306000  1
  C  C379  1  0.21371000  0.72478000  0.67306000  1
  C  C380  1  0.48893000  0.21371000  0.67306000  1
  C  C381  1  0.27522000  0.48893000  0.67306000  1
  C  C382  1  0.78629000  0.27522000  0.67306000  1
  C  C383  1  0.51107000  0.78629000  0.67306000  1
  C  C384  1  0.21371000  0.48893000  0.32694000  1
  C  C385  1  0.27522000  0.78629000  0.32694000  1
  C  C386  1  0.51107000  0.72478000  0.32694000  1
  C  C387  1  0.48893000  0.27522000  0.32694000  1
  C  C388  1  0.78629000  0.51107000  0.32694000  1
  C  C389  1  0.72478000  0.21371000  0.32694000  1
  C  C390  1  0.27653000  0.48994000  0.41454000  1
  C  C391  1  0.78659000  0.27653000  0.41454000  1
  C  C392  1  0.51006000  0.78659000  0.41454000  1
  C  C393  1  0.72347000  0.51006000  0.41454000  1
  C  C394  1  0.21341000  0.72347000  0.41454000  1
  C  C395  1  0.48994000  0.21341000  0.41454000  1
  C  C396  1  0.78659000  0.51006000  0.58546000  1
  C  C397  1  0.72347000  0.21341000  0.58546000  1
  C  C398  1  0.48994000  0.27653000  0.58546000  1
  C  C399  1  0.51006000  0.72347000  0.58546000  1
  C  C400  1  0.21341000  0.48994000  0.58546000  1
  C  C401  1  0.27653000  0.78659000  0.58546000  1
  C  C402  1  0.72347000  0.51006000  0.58546000  1
  C  C403  1  0.21341000  0.72347000  0.58546000  1
  C  C404  1  0.48994000  0.21341000  0.58546000  1
  C  C405  1  0.27653000  0.48994000  0.58546000  1
  C  C406  1  0.78659000  0.27653000  0.58546000  1
  C  C407  1  0.51006000  0.78659000  0.58546000  1
  C  C408  1  0.21341000  0.48994000  0.41454000  1
  C  C409  1  0.27653000  0.78659000  0.41454000  1
  C  C410  1  0.51006000  0.72347000  0.41454000  1
  C  C411  1  0.48994000  0.27653000  0.41454000  1
  C  C412  1  0.78659000  0.51006000  0.41454000  1
  C  C413  1  0.72347000  0.21341000  0.41454000  1
  C  C414  1  0.24352000  0.48705000  0.45686000  1
  C  C415  1  0.75647000  0.24352000  0.45686000  1
  C  C416  1  0.51295000  0.75647000  0.45686000  1
  C  C417  1  0.75648000  0.51295000  0.45686000  1
  C  C418  1  0.24353000  0.75648000  0.45686000  1
  C  C419  1  0.48705000  0.24353000  0.45686000  1
  C  C420  1  0.75647000  0.51295000  0.54314000  1
  C  C421  1  0.75648000  0.24353000  0.54314000  1
  C  C422  1  0.48705000  0.24352000  0.54314000  1
  C  C423  1  0.51295000  0.75648000  0.54314000  1
  C  C424  1  0.24353000  0.48705000  0.54314000  1
  C  C425  1  0.24352000  0.75647000  0.54314000  1
  C  C426  1  0.24423000  0.48855000  0.28816000  1
  C  C427  1  0.75568000  0.24423000  0.28816000  1
  C  C428  1  0.51145000  0.75568000  0.28816000  1
  C  C429  1  0.75577000  0.51145000  0.28816000  1
  C  C430  1  0.24432000  0.75577000  0.28816000  1
  C  C431  1  0.48855000  0.24432000  0.28816000  1
  C  C432  1  0.75568000  0.51145000  0.71184000  1
  C  C433  1  0.75577000  0.24432000  0.71184000  1
  C  C434  1  0.48855000  0.24423000  0.71184000  1
  C  C435  1  0.51145000  0.75577000  0.71184000  1
  C  C436  1  0.24432000  0.48855000  0.71184000  1
  C  C437  1  0.24423000  0.75568000  0.71184000  1
  H  H438  1  0.24390000  0.48780000  0.23040000  1
  H  H439  1  0.75610000  0.24390000  0.23040000  1
  H  H440  1  0.51220000  0.75610000  0.23040000  1
  H  H441  1  0.75610000  0.51220000  0.23040000  1
  H  H442  1  0.24390000  0.75610000  0.23040000  1
  H  H443  1  0.48780000  0.24390000  0.23040000  1
  H  H444  1  0.75610000  0.51220000  0.76960000  1
  H  H445  1  0.75610000  0.24390000  0.76960000  1
  H  H446  1  0.48780000  0.24390000  0.76960000  1
  H  H447  1  0.51220000  0.75610000  0.76960000  1
  H  H448  1  0.24390000  0.48780000  0.76960000  1
  H  H449  1  0.24390000  0.75610000  0.76960000  1
  C  C450  1  0.30722000  0.49044000  0.46135000  1
  C  C451  1  0.81678000  0.30722000  0.46135000  1
  C  C452  1  0.50956000  0.81678000  0.46135000  1
  C  C453  1  0.69278000  0.50956000  0.46135000  1
  C  C454  1  0.18322000  0.69278000  0.46135000  1
  C  C455  1  0.49044000  0.18322000  0.46135000  1
  C  C456  1  0.81678000  0.50956000  0.53865000  1
  C  C457  1  0.69278000  0.18322000  0.53865000  1
  C  C458  1  0.49044000  0.30722000  0.53865000  1
  C  C459  1  0.50956000  0.69278000  0.53865000  1
  C  C460  1  0.18322000  0.49044000  0.53865000  1
  C  C461  1  0.30722000  0.81678000  0.53865000  1
  C  C462  1  0.69278000  0.50956000  0.53865000  1
  C  C463  1  0.18322000  0.69278000  0.53865000  1
  C  C464  1  0.49044000  0.18322000  0.53865000  1
  C  C465  1  0.30722000  0.49044000  0.53865000  1
  C  C466  1  0.81678000  0.30722000  0.53865000  1
  C  C467  1  0.50956000  0.81678000  0.53865000  1
  C  C468  1  0.18322000  0.49044000  0.46135000  1
  C  C469  1  0.30722000  0.81678000  0.46135000  1
  C  C470  1  0.50956000  0.69278000  0.46135000  1
  C  C471  1  0.49044000  0.30722000  0.46135000  1
  C  C472  1  0.81678000  0.50956000  0.46135000  1
  C  C473  1  0.69278000  0.18322000  0.46135000  1
  H  H474  1  0.32850000  0.49080000  0.43370000  1
  H  H475  1  0.83770000  0.32850000  0.43370000  1
  H  H476  1  0.50920000  0.83770000  0.43370000  1
  H  H477  1  0.67150000  0.50920000  0.43370000  1
  H  H478  1  0.16230000  0.67150000  0.43370000  1
  H  H479  1  0.49080000  0.16230000  0.43370000  1
  H  H480  1  0.83770000  0.50920000  0.56630000  1
  H  H481  1  0.67150000  0.16230000  0.56630000  1
  H  H482  1  0.49080000  0.32850000  0.56630000  1
  H  H483  1  0.50920000  0.67150000  0.56630000  1
  H  H484  1  0.16230000  0.49080000  0.56630000  1
  H  H485  1  0.32850000  0.83770000  0.56630000  1
  H  H486  1  0.67150000  0.50920000  0.56630000  1
  H  H487  1  0.16230000  0.67150000  0.56630000  1
  H  H488  1  0.49080000  0.16230000  0.56630000  1
  H  H489  1  0.32850000  0.49080000  0.56630000  1
  H  H490  1  0.83770000  0.32850000  0.56630000  1
  H  H491  1  0.50920000  0.83770000  0.56630000  1
  H  H492  1  0.16230000  0.49080000  0.43370000  1
  H  H493  1  0.32850000  0.83770000  0.43370000  1
  H  H494  1  0.50920000  0.67150000  0.43370000  1
  H  H495  1  0.49080000  0.32850000  0.43370000  1
  H  H496  1  0.83770000  0.50920000  0.43370000  1
  H  H497  1  0.67150000  0.16230000  0.43370000  1
  O  O498  1  0.48248120  0.51752120  0.10484000  1
  O  O499  1  0.96496000  0.48248120  0.10484000  1
  O  O500  1  0.48247880  0.96496000  0.10484000  1
  O  O501  1  0.51751880  0.48247880  0.10484000  1
  O  O502  1  0.03504000  0.51751880  0.10484000  1
  O  O503  1  0.51752120  0.03504000  0.10484000  1
  O  O504  1  0.96496000  0.48247880  0.89516000  1
  O  O505  1  0.51751880  0.03504000  0.89516000  1
  O  O506  1  0.51752120  0.48248120  0.89516000  1
  O  O507  1  0.48247880  0.51751880  0.89516000  1
  O  O508  1  0.03504000  0.51752120  0.89516000  1
  O  O509  1  0.48248120  0.96496000  0.89516000  1
