# generated using pymatgen
data_DyH9C5(NO4)2
_symmetry_space_group_name_H-M   'P 1'
_cell_length_a   11.30130000
_cell_length_b   7.14930000
_cell_length_c   6.59220000
_cell_angle_alpha   90.00000000
_cell_angle_beta   109.56400000
_cell_angle_gamma   90.00000000
_symmetry_Int_Tables_number   1
_chemical_formula_structural   DyH9C5(NO4)2
_chemical_formula_sum   'Dy2 H18 C10 N4 O16'
_cell_volume   501.87638324
_cell_formula_units_Z   2
loop_
 _symmetry_equiv_pos_site_id
 _symmetry_equiv_pos_as_xyz
  1  'x, y, z'
loop_
 _atom_site_type_symbol
 _atom_site_label
 _atom_site_symmetry_multiplicity
 _atom_site_fract_x
 _atom_site_fract_y
 _atom_site_fract_z
 _atom_site_occupancy
  Dy  Dy0  1  0.00000000  0.00000000  0.00000000  1
  Dy  Dy1  1  0.50000000  0.50000000  0.00000000  1
  O  O2  1  0.15376000  0.15751100  0.87969000  1
  O  O3  1  0.65376000  0.65751100  0.87969000  1
  O  O4  1  0.84624000  0.15751100  0.12031000  1
  O  O5  1  0.34624000  0.65751100  0.12031000  1
  O  O6  1  0.82744000  0.80229000  0.88319000  1
  O  O7  1  0.32744000  0.30229000  0.88319000  1
  O  O8  1  0.17256000  0.80229000  0.11681000  1
  O  O9  1  0.67256000  0.30229000  0.11681000  1
  O  O10  1  0.00726000  0.85202000  0.33678000  1
  O  O11  1  0.50726000  0.35202000  0.33678000  1
  O  O12  1  0.99274000  0.85202000  0.66322000  1
  O  O13  1  0.49274000  0.35202000  0.66322000  1
  C  C22  1  0.26507000  0.20271300  0.96508700  1
  C  C23  1  0.76507000  0.70271300  0.96508700  1
  C  C24  1  0.73493000  0.20271300  0.03491300  1
  C  C25  1  0.23493000  0.70271300  0.03491300  1
  C  C26  1  0.00000000  0.92988700  0.50000000  1
  C  C27  1  0.50000000  0.42988700  0.50000000  1
  H  H32  1  0.30900000  0.15500000  0.11400000  1
  H  H33  1  0.80900000  0.65500000  0.11400000  1
  H  H34  1  0.69100000  0.15500000  0.88600000  1
  H  H35  1  0.19100000  0.65500000  0.88600000  1
  H  H36  1  0.00000000  0.07000000  0.50000000  1
  H  H37  1  0.50000000  0.57000000  0.50000000  1
