# generated using pymatgen
data_InH6(CO)8
_symmetry_space_group_name_H-M   'P 1'
_cell_length_a   37.41780000
_cell_length_b   22.90750000
_cell_length_c   7.13701400
_cell_angle_alpha   90.00000000
_cell_angle_beta   90.00000000
_cell_angle_gamma   90.00000000
_symmetry_Int_Tables_number   1
_chemical_formula_structural   InH6(CO)8
_chemical_formula_sum   'In16 H96 C128 O128'
_cell_volume   6117.47908531
_cell_formula_units_Z   16
loop_
 _symmetry_equiv_pos_site_id
 _symmetry_equiv_pos_as_xyz
  1  'x, y, z'
loop_
 _atom_site_type_symbol
 _atom_site_label
 _atom_site_symmetry_multiplicity
 _atom_site_fract_x
 _atom_site_fract_y
 _atom_site_fract_z
 _atom_site_occupancy
  In  In0  1  0.25296200  0.50000000  0.50000000  1
  In  In1  1  0.74703800  0.00000000  0.00000000  1
  In  In2  1  0.75296200  0.00000000  0.50000000  1
  In  In3  1  0.24703800  0.50000000  0.00000000  1
  In  In4  1  0.74703800  0.50000000  0.50000000  1
  In  In5  1  0.25296200  0.00000000  0.00000000  1
  In  In6  1  0.24703800  0.00000000  0.50000000  1
  In  In7  1  0.75296200  0.50000000  0.00000000  1
  In  In8  1  0.00000000  0.24476200  0.04653300  1
  In  In9  1  0.00000000  0.25523800  0.54653300  1
  In  In10  1  0.00000000  0.74476200  0.45346700  1
  In  In11  1  0.00000000  0.75523800  0.95346700  1
  In  In12  1  0.50000000  0.74476200  0.04653300  1
  In  In13  1  0.50000000  0.75523800  0.54653300  1
  In  In14  1  0.50000000  0.24476200  0.45346700  1
  In  In15  1  0.50000000  0.25523800  0.95346700  1
  O  O16  1  0.25000000  0.45516800  0.75000000  1
  O  O17  1  0.75000000  0.04483200  0.25000000  1
  O  O18  1  0.75000000  0.95516800  0.75000000  1
  O  O19  1  0.25000000  0.54483200  0.25000000  1
  O  O20  1  0.75000000  0.54483200  0.25000000  1
  O  O21  1  0.25000000  0.95516800  0.75000000  1
  O  O22  1  0.25000000  0.04483200  0.25000000  1
  O  O23  1  0.75000000  0.45516800  0.75000000  1
  H  H24  1  0.25000000  0.41460000  0.75000000  1
  H  H25  1  0.75000000  0.08540000  0.25000000  1
  H  H26  1  0.75000000  0.91460000  0.75000000  1
  H  H27  1  0.25000000  0.58540000  0.25000000  1
  H  H28  1  0.75000000  0.58540000  0.25000000  1
  H  H29  1  0.25000000  0.91460000  0.75000000  1
  H  H30  1  0.25000000  0.08540000  0.25000000  1
  H  H31  1  0.75000000  0.41460000  0.75000000  1
  O  O32  1  0.00000000  0.29484900  0.80447000  1
  O  O33  1  0.00000000  0.20515100  0.30447000  1
  O  O34  1  0.00000000  0.79484900  0.69553000  1
  O  O35  1  0.00000000  0.70515100  0.19553000  1
  O  O36  1  0.50000000  0.79484900  0.80447000  1
  O  O37  1  0.50000000  0.70515100  0.30447000  1
  O  O38  1  0.50000000  0.29484900  0.69553000  1
  O  O39  1  0.50000000  0.20515100  0.19553000  1
  H  H40  1  0.00000000  0.33540000  0.81290000  1
  H  H41  1  0.00000000  0.16460000  0.31290000  1
  H  H42  1  0.00000000  0.83540000  0.68710000  1
  H  H43  1  0.00000000  0.66460000  0.18710000  1
  H  H44  1  0.50000000  0.83540000  0.81290000  1
  H  H45  1  0.50000000  0.66460000  0.31290000  1
  H  H46  1  0.50000000  0.33540000  0.68710000  1
  H  H47  1  0.50000000  0.16460000  0.18710000  1
  O  O48  1  0.20973400  0.44280800  0.40752000  1
  O  O49  1  0.79026600  0.05719200  0.90752000  1
  O  O50  1  0.79026600  0.94280800  0.09248000  1
  O  O51  1  0.20973400  0.55719200  0.59248000  1
  O  O52  1  0.70973400  0.94280800  0.40752000  1
  O  O53  1  0.29026600  0.55719200  0.90752000  1
  O  O54  1  0.29026600  0.44280800  0.09248000  1
  O  O55  1  0.70973400  0.05719200  0.59248000  1
  O  O56  1  0.79026600  0.55719200  0.59248000  1
  O  O57  1  0.20973400  0.94280800  0.09248000  1
  O  O58  1  0.20973400  0.05719200  0.90752000  1
  O  O59  1  0.79026600  0.44280800  0.40752000  1
  O  O60  1  0.29026600  0.05719200  0.59248000  1
  O  O61  1  0.70973400  0.44280800  0.09248000  1
  O  O62  1  0.70973400  0.55719200  0.90752000  1
  O  O63  1  0.29026600  0.94280800  0.40752000  1
  O  O64  1  0.20552400  0.44266800  0.09652000  1
  O  O65  1  0.79447600  0.05733200  0.59652000  1
  O  O66  1  0.79447600  0.94266800  0.40348000  1
  O  O67  1  0.20552400  0.55733200  0.90348000  1
  O  O68  1  0.70552400  0.94266800  0.09652000  1
  O  O69  1  0.29447600  0.55733200  0.59652000  1
  O  O70  1  0.29447600  0.44266800  0.40348000  1
  O  O71  1  0.70552400  0.05733200  0.90348000  1
  O  O72  1  0.79447600  0.55733200  0.90348000  1
  O  O73  1  0.20552400  0.94266800  0.40348000  1
  O  O74  1  0.20552400  0.05733200  0.59652000  1
  O  O75  1  0.79447600  0.44266800  0.09652000  1
  O  O76  1  0.29447600  0.05733200  0.90348000  1
  O  O77  1  0.70552400  0.44266800  0.40348000  1
  O  O78  1  0.70552400  0.55733200  0.59652000  1
  O  O79  1  0.29447600  0.94266800  0.09652000  1
  O  O80  1  0.04165400  0.30429800  0.14272000  1
  O  O81  1  0.95834600  0.19570200  0.64272000  1
  O  O82  1  0.95834600  0.80429800  0.35728000  1
  O  O83  1  0.04165400  0.69570200  0.85728000  1
  O  O84  1  0.54165400  0.80429800  0.14272000  1
  O  O85  1  0.45834600  0.69570200  0.64272000  1
  O  O86  1  0.45834600  0.30429800  0.35728000  1
  O  O87  1  0.54165400  0.19570200  0.85728000  1
  O  O88  1  0.95834600  0.69570200  0.85728000  1
  O  O89  1  0.04165400  0.80429800  0.35728000  1
  O  O90  1  0.04165400  0.19570200  0.64272000  1
  O  O91  1  0.95834600  0.30429800  0.14272000  1
  O  O92  1  0.45834600  0.19570200  0.85728000  1
  O  O93  1  0.54165400  0.30429800  0.35728000  1
  O  O94  1  0.54165400  0.69570200  0.64272000  1
  O  O95  1  0.45834600  0.80429800  0.14272000  1
  O  O96  1  0.04296400  0.31027800  0.45282000  1
  O  O97  1  0.95703600  0.18972200  0.95282000  1
  O  O98  1  0.95703600  0.81027800  0.04718000  1
  O  O99  1  0.04296400  0.68972200  0.54718000  1
  O  O100  1  0.54296400  0.81027800  0.45282000  1
  O  O101  1  0.45703600  0.68972200  0.95282000  1
  O  O102  1  0.45703600  0.31027800  0.04718000  1
  O  O103  1  0.54296400  0.18972200  0.54718000  1
  O  O104  1  0.95703600  0.68972200  0.54718000  1
  O  O105  1  0.04296400  0.81027800  0.04718000  1
  O  O106  1  0.04296400  0.18972200  0.95282000  1
  O  O107  1  0.95703600  0.31027800  0.45282000  1
  O  O108  1  0.45703600  0.18972200  0.54718000  1
  O  O109  1  0.54296400  0.31027800  0.04718000  1
  O  O110  1  0.54296400  0.68972200  0.95282000  1
  O  O111  1  0.45703600  0.81027800  0.45282000  1
  O  O112  1  0.15727600  0.40372130  0.60903000  1
  O  O113  1  0.84272400  0.09627870  0.10903000  1
  O  O114  1  0.84272400  0.90372130  0.89097000  1
  O  O115  1  0.15727600  0.59627870  0.39097000  1
  O  O116  1  0.65727600  0.90372130  0.60903000  1
  O  O117  1  0.34272400  0.59627870  0.10903000  1
  O  O118  1  0.34272400  0.40372130  0.89097000  1
  O  O119  1  0.65727600  0.09627870  0.39097000  1
  O  O120  1  0.84272400  0.59627870  0.39097000  1
  O  O121  1  0.15727600  0.90372130  0.89097000  1
  O  O122  1  0.15727600  0.09627870  0.10903000  1
  O  O123  1  0.84272400  0.40372130  0.60903000  1
  O  O124  1  0.34272400  0.09627870  0.39097000  1
  O  O125  1  0.65727600  0.40372130  0.89097000  1
  O  O126  1  0.65727600  0.59627870  0.10903000  1
  O  O127  1  0.34272400  0.90372130  0.60903000  1
  H  H128  1  0.17660000  0.41950000  0.59080000  1
  H  H129  1  0.82340000  0.08050000  0.09080000  1
  H  H130  1  0.82340000  0.91950000  0.90920000  1
  H  H131  1  0.17660000  0.58050000  0.40920000  1
  H  H132  1  0.67660000  0.91950000  0.59080000  1
  H  H133  1  0.32340000  0.58050000  0.09080000  1
  H  H134  1  0.32340000  0.41950000  0.90920000  1
  H  H135  1  0.67660000  0.08050000  0.40920000  1
  H  H136  1  0.82340000  0.58050000  0.40920000  1
  H  H137  1  0.17660000  0.91950000  0.90920000  1
  H  H138  1  0.17660000  0.08050000  0.09080000  1
  H  H139  1  0.82340000  0.41950000  0.59080000  1
  H  H140  1  0.32340000  0.08050000  0.40920000  1
  H  H141  1  0.67660000  0.41950000  0.90920000  1
  H  H142  1  0.67660000  0.58050000  0.09080000  1
  H  H143  1  0.32340000  0.91950000  0.59080000  1
  O  O144  1  0.09307600  0.34580120  0.94137000  1
  O  O145  1  0.90692400  0.15419880  0.44137000  1
  O  O146  1  0.90692400  0.84580120  0.55863000  1
  O  O147  1  0.09307600  0.65419880  0.05863000  1
  O  O148  1  0.59307600  0.84580120  0.94137000  1
  O  O149  1  0.40692400  0.65419880  0.44137000  1
  O  O150  1  0.40692400  0.34580120  0.55863000  1
  O  O151  1  0.59307600  0.15419880  0.05863000  1
  O  O152  1  0.90692400  0.65419880  0.05863000  1
  O  O153  1  0.09307600  0.84580120  0.55863000  1
  O  O154  1  0.09307600  0.15419880  0.44137000  1
  O  O155  1  0.90692400  0.34580120  0.94137000  1
  O  O156  1  0.40692400  0.15419880  0.05863000  1
  O  O157  1  0.59307600  0.34580120  0.55863000  1
  O  O158  1  0.59307600  0.65419880  0.44137000  1
  O  O159  1  0.40692400  0.84580120  0.94137000  1
  H  H160  1  0.07390000  0.32940000  0.95890000  1
  H  H161  1  0.92610000  0.17060000  0.45890000  1
  H  H162  1  0.92610000  0.82940000  0.54110000  1
  H  H163  1  0.07390000  0.67060000  0.04110000  1
  H  H164  1  0.57390000  0.82940000  0.95890000  1
  H  H165  1  0.42610000  0.67060000  0.45890000  1
  H  H166  1  0.42610000  0.32940000  0.54110000  1
  H  H167  1  0.57390000  0.17060000  0.04110000  1
  H  H168  1  0.92610000  0.67060000  0.04110000  1
  H  H169  1  0.07390000  0.82940000  0.54110000  1
  H  H170  1  0.07390000  0.17060000  0.45890000  1
  H  H171  1  0.92610000  0.32940000  0.95890000  1
  H  H172  1  0.42610000  0.17060000  0.04110000  1
  H  H173  1  0.57390000  0.32940000  0.54110000  1
  H  H174  1  0.57390000  0.67060000  0.45890000  1
  H  H175  1  0.42610000  0.82940000  0.95890000  1
  C  C176  1  0.19368500  0.43151900  0.25583000  1
  C  C177  1  0.80631500  0.06848100  0.75583000  1
  C  C178  1  0.80631500  0.93151900  0.24417000  1
  C  C179  1  0.19368500  0.56848100  0.74417000  1
  C  C180  1  0.69368500  0.93151900  0.25583000  1
  C  C181  1  0.30631500  0.56848100  0.75583000  1
  C  C182  1  0.30631500  0.43151900  0.24417000  1
  C  C183  1  0.69368500  0.06848100  0.74417000  1
  C  C184  1  0.80631500  0.56848100  0.74417000  1
  C  C185  1  0.19368500  0.93151900  0.24417000  1
  C  C186  1  0.19368500  0.06848100  0.75583000  1
  C  C187  1  0.80631500  0.43151900  0.25583000  1
  C  C188  1  0.30631500  0.06848100  0.74417000  1
  C  C189  1  0.69368500  0.43151900  0.24417000  1
  C  C190  1  0.69368500  0.56848100  0.75583000  1
  C  C191  1  0.30631500  0.93151900  0.25583000  1
  C  C192  1  0.05629500  0.31851000  0.29433000  1
  C  C193  1  0.94370500  0.18149000  0.79433000  1
  C  C194  1  0.94370500  0.81851000  0.20567000  1
  C  C195  1  0.05629500  0.68149000  0.70567000  1
  C  C196  1  0.55629500  0.81851000  0.29433000  1
  C  C197  1  0.44370500  0.68149000  0.79433000  1
  C  C198  1  0.44370500  0.31851000  0.20567000  1
  C  C199  1  0.55629500  0.18149000  0.70567000  1
  C  C200  1  0.94370500  0.68149000  0.70567000  1
  C  C201  1  0.05629500  0.81851000  0.20567000  1
  C  C202  1  0.05629500  0.18149000  0.79433000  1
  C  C203  1  0.94370500  0.31851000  0.29433000  1
  C  C204  1  0.44370500  0.18149000  0.70567000  1
  C  C205  1  0.55629500  0.31851000  0.20567000  1
  C  C206  1  0.55629500  0.68149000  0.79433000  1
  C  C207  1  0.44370500  0.81851000  0.29433000  1
  C  C208  1  0.15828500  0.40221000  0.26973000  1
  C  C209  1  0.84171500  0.09779000  0.76973000  1
  C  C210  1  0.84171500  0.90221000  0.23027000  1
  C  C211  1  0.15828500  0.59779000  0.73027000  1
  C  C212  1  0.65828500  0.90221000  0.26973000  1
  C  C213  1  0.34171500  0.59779000  0.76973000  1
  C  C214  1  0.34171500  0.40221000  0.23027000  1
  C  C215  1  0.65828500  0.09779000  0.73027000  1
  C  C216  1  0.84171500  0.59779000  0.73027000  1
  C  C217  1  0.15828500  0.90221000  0.23027000  1
  C  C218  1  0.15828500  0.09779000  0.76973000  1
  C  C219  1  0.84171500  0.40221000  0.26973000  1
  C  C220  1  0.34171500  0.09779000  0.73027000  1
  C  C221  1  0.65828500  0.40221000  0.23027000  1
  C  C222  1  0.65828500  0.59779000  0.76973000  1
  C  C223  1  0.34171500  0.90221000  0.26973000  1
  C  C224  1  0.14198700  0.39053140  0.44283000  1
  C  C225  1  0.85801300  0.10946860  0.94283000  1
  C  C226  1  0.85801300  0.89053140  0.05717000  1
  C  C227  1  0.14198700  0.60946860  0.55717000  1
  C  C228  1  0.64198700  0.89053140  0.44283000  1
  C  C229  1  0.35801300  0.60946860  0.94283000  1
  C  C230  1  0.35801300  0.39053140  0.05717000  1
  C  C231  1  0.64198700  0.10946860  0.55717000  1
  C  C232  1  0.85801300  0.60946860  0.55717000  1
  C  C233  1  0.14198700  0.89053140  0.05717000  1
  C  C234  1  0.14198700  0.10946860  0.94283000  1
  C  C235  1  0.85801300  0.39053140  0.44283000  1
  C  C236  1  0.35801300  0.10946860  0.55717000  1
  C  C237  1  0.64198700  0.39053140  0.05717000  1
  C  C238  1  0.64198700  0.60946860  0.94283000  1
  C  C239  1  0.35801300  0.89053140  0.44283000  1
  C  C240  1  0.10900700  0.36328130  0.44703000  1
  C  C241  1  0.89099300  0.13671870  0.94703000  1
  C  C242  1  0.89099300  0.86328130  0.05297000  1
  C  C243  1  0.10900700  0.63671870  0.55297000  1
  C  C244  1  0.60900700  0.86328130  0.44703000  1
  C  C245  1  0.39099300  0.63671870  0.94703000  1
  C  C246  1  0.39099300  0.36328130  0.05297000  1
  C  C247  1  0.60900700  0.13671870  0.55297000  1
  C  C248  1  0.89099300  0.63671870  0.55297000  1
  C  C249  1  0.10900700  0.86328130  0.05297000  1
  C  C250  1  0.10900700  0.13671870  0.94703000  1
  C  C251  1  0.89099300  0.36328130  0.44703000  1
  C  C252  1  0.39099300  0.13671870  0.55297000  1
  C  C253  1  0.60900700  0.36328130  0.05297000  1
  C  C254  1  0.60900700  0.63671870  0.94703000  1
  C  C255  1  0.39099300  0.86328130  0.44703000  1
  H  H256  1  0.09830000  0.35510000  0.56180000  1
  H  H257  1  0.90170000  0.14490000  0.06180000  1
  H  H258  1  0.90170000  0.85510000  0.93820000  1
  H  H259  1  0.09830000  0.64490000  0.43820000  1
  H  H260  1  0.59830000  0.85510000  0.56180000  1
  H  H261  1  0.40170000  0.64490000  0.06180000  1
  H  H262  1  0.40170000  0.35510000  0.93820000  1
  H  H263  1  0.59830000  0.14490000  0.43820000  1
  H  H264  1  0.90170000  0.64490000  0.43820000  1
  H  H265  1  0.09830000  0.85510000  0.93820000  1
  H  H266  1  0.09830000  0.14490000  0.06180000  1
  H  H267  1  0.90170000  0.35510000  0.56180000  1
  H  H268  1  0.40170000  0.14490000  0.43820000  1
  H  H269  1  0.59830000  0.35510000  0.93820000  1
  H  H270  1  0.59830000  0.64490000  0.06180000  1
  H  H271  1  0.40170000  0.85510000  0.56180000  1
  C  C272  1  0.09162500  0.34796110  0.28253000  1
  C  C273  1  0.90837500  0.15203890  0.78253000  1
  C  C274  1  0.90837500  0.84796110  0.21747000  1
  C  C275  1  0.09162500  0.65203890  0.71747000  1
  C  C276  1  0.59162500  0.84796110  0.28253000  1
  C  C277  1  0.40837500  0.65203890  0.78253000  1
  C  C278  1  0.40837500  0.34796110  0.21747000  1
  C  C279  1  0.59162500  0.15203890  0.71747000  1
  C  C280  1  0.90837500  0.65203890  0.71747000  1
  C  C281  1  0.09162500  0.84796110  0.21747000  1
  C  C282  1  0.09162500  0.15203890  0.78253000  1
  C  C283  1  0.90837500  0.34796110  0.28253000  1
  C  C284  1  0.40837500  0.15203890  0.71747000  1
  C  C285  1  0.59162500  0.34796110  0.21747000  1
  C  C286  1  0.59162500  0.65203890  0.78253000  1
  C  C287  1  0.40837500  0.84796110  0.28253000  1
  C  C288  1  0.10805700  0.35951130  0.10893000  1
  C  C289  1  0.89194300  0.14048870  0.60893000  1
  C  C290  1  0.89194300  0.85951130  0.39107000  1
  C  C291  1  0.10805700  0.64048870  0.89107000  1
  C  C292  1  0.60805700  0.85951130  0.10893000  1
  C  C293  1  0.39194300  0.64048870  0.60893000  1
  C  C294  1  0.39194300  0.35951130  0.39107000  1
  C  C295  1  0.60805700  0.14048870  0.89107000  1
  C  C296  1  0.89194300  0.64048870  0.89107000  1
  C  C297  1  0.10805700  0.85951130  0.39107000  1
  C  C298  1  0.10805700  0.14048870  0.60893000  1
  C  C299  1  0.89194300  0.35951130  0.10893000  1
  C  C300  1  0.39194300  0.14048870  0.89107000  1
  C  C301  1  0.60805700  0.35951130  0.39107000  1
  C  C302  1  0.60805700  0.64048870  0.60893000  1
  C  C303  1  0.39194300  0.85951130  0.10893000  1
  C  C304  1  0.14089600  0.38717120  0.10523000  1
  C  C305  1  0.85910400  0.11282880  0.60523000  1
  C  C306  1  0.85910400  0.88717120  0.39477000  1
  C  C307  1  0.14089600  0.61282880  0.89477000  1
  C  C308  1  0.64089600  0.88717120  0.10523000  1
  C  C309  1  0.35910400  0.61282880  0.60523000  1
  C  C310  1  0.35910400  0.38717120  0.39477000  1
  C  C311  1  0.64089600  0.11282880  0.89477000  1
  C  C312  1  0.85910400  0.61282880  0.89477000  1
  C  C313  1  0.14089600  0.88717120  0.39477000  1
  C  C314  1  0.14089600  0.11282880  0.60523000  1
  C  C315  1  0.85910400  0.38717120  0.10523000  1
  C  C316  1  0.35910400  0.11282880  0.89477000  1
  C  C317  1  0.64089600  0.38717120  0.39477000  1
  C  C318  1  0.64089600  0.61282880  0.60523000  1
  C  C319  1  0.35910400  0.88717120  0.10523000  1
  H  H320  1  0.15150000  0.39580000  0.99060000  1
  H  H321  1  0.84850000  0.10420000  0.49060000  1
  H  H322  1  0.84850000  0.89580000  0.50940000  1
  H  H323  1  0.15150000  0.60420000  0.00940000  1
  H  H324  1  0.65150000  0.89580000  0.99060000  1
  H  H325  1  0.34850000  0.60420000  0.49060000  1
  H  H326  1  0.34850000  0.39580000  0.50940000  1
  H  H327  1  0.65150000  0.10420000  0.00940000  1
  H  H328  1  0.84850000  0.60420000  0.00940000  1
  H  H329  1  0.15150000  0.89580000  0.50940000  1
  H  H330  1  0.15150000  0.10420000  0.49060000  1
  H  H331  1  0.84850000  0.39580000  0.99060000  1
  H  H332  1  0.34850000  0.10420000  0.00940000  1
  H  H333  1  0.65150000  0.39580000  0.50940000  1
  H  H334  1  0.65150000  0.60420000  0.49060000  1
  H  H335  1  0.34850000  0.89580000  0.99060000  1
