# generated using pymatgen
data_Th3H24C32O17
_symmetry_space_group_name_H-M   'P 1'
_cell_length_a   24.87858000
_cell_length_b   24.87858000
_cell_length_c   17.50346000
_cell_angle_alpha   90.00000000
_cell_angle_beta   90.00000000
_cell_angle_gamma   90.00000000
_symmetry_Int_Tables_number   1
_chemical_formula_structural   Th3H24C32O17
_chemical_formula_sum   'Th12 H96 C128 O68'
_cell_volume   10833.65704464
_cell_formula_units_Z   4
loop_
 _symmetry_equiv_pos_site_id
 _symmetry_equiv_pos_as_xyz
  1  'x, y, z'
loop_
 _atom_site_type_symbol
 _atom_site_label
 _atom_site_symmetry_multiplicity
 _atom_site_fract_x
 _atom_site_fract_y
 _atom_site_fract_z
 _atom_site_occupancy
  Th  Th0  1  0.50000000  0.07807200  0.11118200  1
  Th  Th1  1  0.50000000  0.92192800  0.11118200  1
  Th  Th2  1  0.92192800  0.50000000  0.61118200  1
  Th  Th3  1  0.07807200  0.50000000  0.61118200  1
  Th  Th4  1  0.50000000  0.07807200  0.88881800  1
  Th  Th5  1  0.50000000  0.92192800  0.88881800  1
  Th  Th6  1  0.07807200  0.50000000  0.38881800  1
  Th  Th7  1  0.92192800  0.50000000  0.38881800  1
  Th  Th8  1  0.38690200  0.00000000  0.00000000  1
  Th  Th9  1  0.61309800  0.00000000  0.00000000  1
  Th  Th10  1  0.00000000  0.38690200  0.50000000  1
  Th  Th11  1  0.00000000  0.61309800  0.50000000  1
  O  O12  1  0.44743000  0.00000000  0.10705000  1
  O  O13  1  0.55257000  0.00000000  0.10705000  1
  O  O14  1  0.00000000  0.44743000  0.60705000  1
  O  O15  1  0.00000000  0.55257000  0.60705000  1
  O  O16  1  0.55257000  0.00000000  0.89295000  1
  O  O17  1  0.44743000  0.00000000  0.89295000  1
  O  O18  1  0.00000000  0.44743000  0.39295000  1
  O  O19  1  0.00000000  0.55257000  0.39295000  1
  O  O20  1  0.44733000  0.07563000  0.00000000  1
  O  O21  1  0.55267000  0.92437000  0.00000000  1
  O  O22  1  0.92437000  0.44733000  0.50000000  1
  O  O23  1  0.07563000  0.55267000  0.50000000  1
  O  O24  1  0.55267000  0.07563000  0.00000000  1
  O  O25  1  0.44733000  0.92437000  0.00000000  1
  O  O26  1  0.07563000  0.44733000  0.50000000  1
  O  O27  1  0.92437000  0.55267000  0.50000000  1
  O  O28  1  0.34696140  0.06578150  0.09153000  1
  O  O29  1  0.65303860  0.93421850  0.09153000  1
  O  O30  1  0.93421850  0.34696140  0.59153000  1
  O  O31  1  0.06578150  0.65303860  0.59153000  1
  O  O32  1  0.65303860  0.06578150  0.90847000  1
  O  O33  1  0.34696140  0.93421850  0.90847000  1
  O  O34  1  0.06578150  0.34696140  0.40847000  1
  O  O35  1  0.93421850  0.65303860  0.40847000  1
  O  O36  1  0.65303860  0.93421850  0.90847000  1
  O  O37  1  0.34696140  0.06578150  0.90847000  1
  O  O38  1  0.06578150  0.65303860  0.40847000  1
  O  O39  1  0.93421850  0.34696140  0.40847000  1
  O  O40  1  0.34696140  0.93421850  0.09153000  1
  O  O41  1  0.65303860  0.06578150  0.09153000  1
  O  O42  1  0.93421850  0.65303860  0.59153000  1
  O  O43  1  0.06578150  0.34696140  0.59153000  1
  O  O44  1  0.41131150  0.10869180  0.15623000  1
  O  O45  1  0.58868850  0.89130820  0.15623000  1
  O  O46  1  0.89130820  0.41131150  0.65623000  1
  O  O47  1  0.10869180  0.58868850  0.65623000  1
  O  O48  1  0.58868850  0.10869180  0.84377000  1
  O  O49  1  0.41131150  0.89130820  0.84377000  1
  O  O50  1  0.10869180  0.41131150  0.34377000  1
  O  O51  1  0.89130820  0.58868850  0.34377000  1
  O  O52  1  0.58868850  0.89130820  0.84377000  1
  O  O53  1  0.41131150  0.10869180  0.84377000  1
  O  O54  1  0.10869180  0.58868850  0.34377000  1
  O  O55  1  0.89130820  0.41131150  0.34377000  1
  O  O56  1  0.41131150  0.89130820  0.15623000  1
  O  O57  1  0.58868850  0.10869180  0.15623000  1
  O  O58  1  0.89130820  0.58868850  0.65623000  1
  O  O59  1  0.10869180  0.41131150  0.65623000  1
  C  C76  1  0.36312000  0.10062000  0.13644000  1
  C  C77  1  0.63688000  0.89938000  0.13644000  1
  C  C78  1  0.89938000  0.36312000  0.63644000  1
  C  C79  1  0.10062000  0.63688000  0.63644000  1
  C  C80  1  0.63688000  0.10062000  0.86356000  1
  C  C81  1  0.36312000  0.89938000  0.86356000  1
  C  C82  1  0.10062000  0.36312000  0.36356000  1
  C  C83  1  0.89938000  0.63688000  0.36356000  1
  C  C84  1  0.63688000  0.89938000  0.86356000  1
  C  C85  1  0.36312000  0.10062000  0.86356000  1
  C  C86  1  0.10062000  0.63688000  0.36356000  1
  C  C87  1  0.89938000  0.36312000  0.36356000  1
  C  C88  1  0.36312000  0.89938000  0.13644000  1
  C  C89  1  0.63688000  0.10062000  0.13644000  1
  C  C90  1  0.89938000  0.63688000  0.63644000  1
  C  C91  1  0.10062000  0.36312000  0.63644000  1
  C  C92  1  0.32192000  0.13702000  0.17053000  1
  C  C93  1  0.67808000  0.86298000  0.17053000  1
  C  C94  1  0.86298000  0.32192000  0.67053000  1
  C  C95  1  0.13702000  0.67808000  0.67053000  1
  C  C96  1  0.67808000  0.13702000  0.82947000  1
  C  C97  1  0.32192000  0.86298000  0.82947000  1
  C  C98  1  0.13702000  0.32192000  0.32947000  1
  C  C99  1  0.86298000  0.67808000  0.32947000  1
  C  C100  1  0.67808000  0.86298000  0.82947000  1
  C  C101  1  0.32192000  0.13702000  0.82947000  1
  C  C102  1  0.13702000  0.67808000  0.32947000  1
  C  C103  1  0.86298000  0.32192000  0.32947000  1
  C  C104  1  0.32192000  0.86298000  0.17053000  1
  C  C105  1  0.67808000  0.13702000  0.17053000  1
  C  C106  1  0.86298000  0.67808000  0.67053000  1
  C  C107  1  0.13702000  0.32192000  0.67053000  1
  C  C108  1  0.26963000  0.13443000  0.14785000  1
  C  C109  1  0.73037000  0.86557000  0.14785000  1
  C  C110  1  0.86557000  0.26963000  0.64785000  1
  C  C111  1  0.13443000  0.73037000  0.64785000  1
  C  C112  1  0.73037000  0.13443000  0.85215000  1
  C  C113  1  0.26963000  0.86557000  0.85215000  1
  C  C114  1  0.13443000  0.26963000  0.35215000  1
  C  C115  1  0.86557000  0.73037000  0.35215000  1
  C  C116  1  0.73037000  0.86557000  0.85215000  1
  C  C117  1  0.26963000  0.13443000  0.85215000  1
  C  C118  1  0.13443000  0.73037000  0.35215000  1
  C  C119  1  0.86557000  0.26963000  0.35215000  1
  C  C120  1  0.26963000  0.86557000  0.14785000  1
  C  C121  1  0.73037000  0.13443000  0.14785000  1
  C  C122  1  0.86557000  0.73037000  0.64785000  1
  C  C123  1  0.13443000  0.26963000  0.64785000  1
  H  H124  1  0.25945000  0.10868000  0.11122000  1
  H  H125  1  0.74055000  0.89132000  0.11122000  1
  H  H126  1  0.89132000  0.25945000  0.61122000  1
  H  H127  1  0.10868000  0.74055000  0.61122000  1
  H  H128  1  0.74055000  0.10868000  0.88878000  1
  H  H129  1  0.25945000  0.89132000  0.88878000  1
  H  H130  1  0.10868000  0.25945000  0.38878000  1
  H  H131  1  0.89132000  0.74055000  0.38878000  1
  H  H132  1  0.74055000  0.89132000  0.88878000  1
  H  H133  1  0.25945000  0.10868000  0.88878000  1
  H  H134  1  0.10868000  0.74055000  0.38878000  1
  H  H135  1  0.89132000  0.25945000  0.38878000  1
  H  H136  1  0.25945000  0.89132000  0.11122000  1
  H  H137  1  0.74055000  0.10868000  0.11122000  1
  H  H138  1  0.89132000  0.74055000  0.61122000  1
  H  H139  1  0.10868000  0.25945000  0.61122000  1
  C  C140  1  0.23073000  0.16904000  0.17786000  1
  C  C141  1  0.76927000  0.83096000  0.17786000  1
  C  C142  1  0.83096000  0.23073000  0.67786000  1
  C  C143  1  0.16904000  0.76927000  0.67786000  1
  C  C144  1  0.76927000  0.16904000  0.82214000  1
  C  C145  1  0.23073000  0.83096000  0.82214000  1
  C  C146  1  0.16904000  0.23073000  0.32214000  1
  C  C147  1  0.83096000  0.76927000  0.32214000  1
  C  C148  1  0.76927000  0.83096000  0.82214000  1
  C  C149  1  0.23073000  0.16904000  0.82214000  1
  C  C150  1  0.16904000  0.76927000  0.32214000  1
  C  C151  1  0.83096000  0.23073000  0.32214000  1
  C  C152  1  0.23073000  0.83096000  0.17786000  1
  C  C153  1  0.76927000  0.16904000  0.17786000  1
  C  C154  1  0.83096000  0.76927000  0.67786000  1
  C  C155  1  0.16904000  0.23073000  0.67786000  1
  C  C156  1  0.24643000  0.20653000  0.23415000  1
  C  C157  1  0.75357000  0.79347000  0.23415000  1
  C  C158  1  0.79347000  0.24643000  0.73415000  1
  C  C159  1  0.20653000  0.75357000  0.73415000  1
  C  C160  1  0.75357000  0.20653000  0.76585000  1
  C  C161  1  0.24643000  0.79347000  0.76585000  1
  C  C162  1  0.20653000  0.24643000  0.26585000  1
  C  C163  1  0.79347000  0.75357000  0.26585000  1
  C  C164  1  0.75357000  0.79347000  0.76585000  1
  C  C165  1  0.24643000  0.20653000  0.76585000  1
  C  C166  1  0.20653000  0.75357000  0.26585000  1
  C  C167  1  0.79347000  0.24643000  0.26585000  1
  C  C168  1  0.24643000  0.79347000  0.23415000  1
  C  C169  1  0.75357000  0.20653000  0.23415000  1
  C  C170  1  0.79347000  0.75357000  0.73415000  1
  C  C171  1  0.20653000  0.24643000  0.73415000  1
  C  C172  1  0.29993000  0.20953000  0.25745000  1
  C  C173  1  0.70007000  0.79047000  0.25745000  1
  C  C174  1  0.79047000  0.29993000  0.75745000  1
  C  C175  1  0.20953000  0.70007000  0.75745000  1
  C  C176  1  0.70007000  0.20953000  0.74255000  1
  C  C177  1  0.29993000  0.79047000  0.74255000  1
  C  C178  1  0.20953000  0.29993000  0.24255000  1
  C  C179  1  0.79047000  0.70007000  0.24255000  1
  C  C180  1  0.70007000  0.79047000  0.74255000  1
  C  C181  1  0.29993000  0.20953000  0.74255000  1
  C  C182  1  0.20953000  0.70007000  0.24255000  1
  C  C183  1  0.79047000  0.29993000  0.24255000  1
  C  C184  1  0.29993000  0.79047000  0.25745000  1
  C  C185  1  0.70007000  0.20953000  0.25745000  1
  C  C186  1  0.79047000  0.70007000  0.75745000  1
  C  C187  1  0.20953000  0.29993000  0.75745000  1
  H  H188  1  0.31088000  0.23507000  0.29372000  1
  H  H189  1  0.68912000  0.76493000  0.29372000  1
  H  H190  1  0.76493000  0.31088000  0.79372000  1
  H  H191  1  0.23507000  0.68912000  0.79372000  1
  H  H192  1  0.68912000  0.23507000  0.70628000  1
  H  H193  1  0.31088000  0.76493000  0.70628000  1
  H  H194  1  0.23507000  0.31088000  0.20628000  1
  H  H195  1  0.76493000  0.68912000  0.20628000  1
  H  H196  1  0.68912000  0.76493000  0.70628000  1
  H  H197  1  0.31088000  0.23507000  0.70628000  1
  H  H198  1  0.23507000  0.68912000  0.20628000  1
  H  H199  1  0.76493000  0.31088000  0.20628000  1
  H  H200  1  0.31088000  0.76493000  0.29372000  1
  H  H201  1  0.68912000  0.23507000  0.29372000  1
  H  H202  1  0.76493000  0.68912000  0.79372000  1
  H  H203  1  0.23507000  0.31088000  0.79372000  1
  C  C204  1  0.33703000  0.17363000  0.22555000  1
  C  C205  1  0.66297000  0.82637000  0.22555000  1
  C  C206  1  0.82637000  0.33703000  0.72555000  1
  C  C207  1  0.17363000  0.66297000  0.72555000  1
  C  C208  1  0.66297000  0.17363000  0.77445000  1
  C  C209  1  0.33703000  0.82637000  0.77445000  1
  C  C210  1  0.17363000  0.33703000  0.27445000  1
  C  C211  1  0.82637000  0.66297000  0.27445000  1
  C  C212  1  0.66297000  0.82637000  0.77445000  1
  C  C213  1  0.33703000  0.17363000  0.77445000  1
  C  C214  1  0.17363000  0.66297000  0.27445000  1
  C  C215  1  0.82637000  0.33703000  0.27445000  1
  C  C216  1  0.33703000  0.82637000  0.22555000  1
  C  C217  1  0.66297000  0.17363000  0.22555000  1
  C  C218  1  0.82637000  0.66297000  0.72555000  1
  C  C219  1  0.17363000  0.33703000  0.72555000  1
  H  H220  1  0.37292000  0.17454000  0.24189000  1
  H  H221  1  0.62708000  0.82546000  0.24189000  1
  H  H222  1  0.82546000  0.37292000  0.74189000  1
  H  H223  1  0.17454000  0.62708000  0.74189000  1
  H  H224  1  0.62708000  0.17454000  0.75811000  1
  H  H225  1  0.37292000  0.82546000  0.75811000  1
  H  H226  1  0.17454000  0.37292000  0.25811000  1
  H  H227  1  0.82546000  0.62708000  0.25811000  1
  H  H228  1  0.62708000  0.82546000  0.75811000  1
  H  H229  1  0.37292000  0.17454000  0.75811000  1
  H  H230  1  0.17454000  0.62708000  0.25811000  1
  H  H231  1  0.82546000  0.37292000  0.25811000  1
  H  H232  1  0.37292000  0.82546000  0.24189000  1
  H  H233  1  0.62708000  0.17454000  0.24189000  1
  H  H234  1  0.82546000  0.62708000  0.74189000  1
  H  H235  1  0.17454000  0.37292000  0.74189000  1
  C  C236  1  0.17245000  0.16376000  0.14699000  1
  C  C237  1  0.82755000  0.83624000  0.14699000  1
  C  C238  1  0.83624000  0.17245000  0.64699000  1
  C  C239  1  0.16376000  0.82755000  0.64699000  1
  C  C240  1  0.82755000  0.16376000  0.85301000  1
  C  C241  1  0.17245000  0.83624000  0.85301000  1
  C  C242  1  0.16376000  0.17245000  0.35301000  1
  C  C243  1  0.83624000  0.82755000  0.35301000  1
  C  C244  1  0.82755000  0.83624000  0.85301000  1
  C  C245  1  0.17245000  0.16376000  0.85301000  1
  C  C246  1  0.16376000  0.82755000  0.35301000  1
  C  C247  1  0.83624000  0.17245000  0.35301000  1
  C  C248  1  0.17245000  0.83624000  0.14699000  1
  C  C249  1  0.82755000  0.16376000  0.14699000  1
  C  C250  1  0.83624000  0.82755000  0.64699000  1
  C  C251  1  0.16376000  0.17245000  0.64699000  1
  H  H252  1  0.17250000  0.16817000  0.09186000  1
  H  H253  1  0.82750000  0.83183000  0.09186000  1
  H  H254  1  0.83183000  0.17250000  0.59186000  1
  H  H255  1  0.16817000  0.82750000  0.59186000  1
  H  H256  1  0.82750000  0.16817000  0.90814000  1
  H  H257  1  0.17250000  0.83183000  0.90814000  1
  H  H258  1  0.16817000  0.17250000  0.40814000  1
  H  H259  1  0.83183000  0.82750000  0.40814000  1
  H  H260  1  0.82750000  0.83183000  0.90814000  1
  H  H261  1  0.17250000  0.16817000  0.90814000  1
  H  H262  1  0.16817000  0.82750000  0.40814000  1
  H  H263  1  0.83183000  0.17250000  0.40814000  1
  H  H264  1  0.17250000  0.83183000  0.09186000  1
  H  H265  1  0.82750000  0.16817000  0.09186000  1
  H  H266  1  0.83183000  0.82750000  0.59186000  1
  H  H267  1  0.16817000  0.17250000  0.59186000  1
  H  H268  1  0.14993000  0.19123000  0.16987000  1
  H  H269  1  0.85007000  0.80877000  0.16987000  1
  H  H270  1  0.80877000  0.14993000  0.66987000  1
  H  H271  1  0.19123000  0.85007000  0.66987000  1
  H  H272  1  0.85007000  0.19123000  0.83013000  1
  H  H273  1  0.14993000  0.80877000  0.83013000  1
  H  H274  1  0.19123000  0.14993000  0.33013000  1
  H  H275  1  0.80877000  0.85007000  0.33013000  1
  H  H276  1  0.85007000  0.80877000  0.83013000  1
  H  H277  1  0.14993000  0.19123000  0.83013000  1
  H  H278  1  0.19123000  0.85007000  0.33013000  1
  H  H279  1  0.80877000  0.14993000  0.33013000  1
  H  H280  1  0.14993000  0.80877000  0.16987000  1
  H  H281  1  0.85007000  0.19123000  0.16987000  1
  H  H282  1  0.80877000  0.85007000  0.66987000  1
  H  H283  1  0.19123000  0.14993000  0.66987000  1
  H  H284  1  0.15828000  0.12852000  0.15972000  1
  H  H285  1  0.84172000  0.87148000  0.15972000  1
  H  H286  1  0.87148000  0.15828000  0.65972000  1
  H  H287  1  0.12852000  0.84172000  0.65972000  1
  H  H288  1  0.84172000  0.12852000  0.84028000  1
  H  H289  1  0.15828000  0.87148000  0.84028000  1
  H  H290  1  0.12852000  0.15828000  0.34028000  1
  H  H291  1  0.87148000  0.84172000  0.34028000  1
  H  H292  1  0.84172000  0.87148000  0.84028000  1
  H  H293  1  0.15828000  0.12852000  0.84028000  1
  H  H294  1  0.12852000  0.84172000  0.34028000  1
  H  H295  1  0.87148000  0.15828000  0.34028000  1
  H  H296  1  0.15828000  0.87148000  0.15972000  1
  H  H297  1  0.84172000  0.12852000  0.15972000  1
  H  H298  1  0.87148000  0.84172000  0.65972000  1
  H  H299  1  0.12852000  0.15828000  0.65972000  1
