# generated using pymatgen
data_SmHg3H12C18N3(Cl3O4)2
_symmetry_space_group_name_H-M   'P 1'
_cell_length_a   11.85796000
_cell_length_b   9.54305000
_cell_length_c   32.89161300
_cell_angle_alpha   90.00000000
_cell_angle_beta   94.31640000
_cell_angle_gamma   90.00000000
_symmetry_Int_Tables_number   1
_chemical_formula_structural   SmHg3H12C18N3(Cl3O4)2
_chemical_formula_sum   'Sm4 Hg12 H48 C72 N12 Cl24 O32'
_cell_volume   3711.49416811
_cell_formula_units_Z   4
loop_
 _symmetry_equiv_pos_site_id
 _symmetry_equiv_pos_as_xyz
  1  'x, y, z'
loop_
 _atom_site_type_symbol
 _atom_site_label
 _atom_site_symmetry_multiplicity
 _atom_site_fract_x
 _atom_site_fract_y
 _atom_site_fract_z
 _atom_site_occupancy
  Hg  Hg0  1  0.23477300  0.46660500  0.24838210  1
  Hg  Hg1  1  0.26522700  0.96660500  0.25161790  1
  Hg  Hg2  1  0.76522700  0.53339500  0.75161790  1
  Hg  Hg3  1  0.73477300  0.03339500  0.74838210  1
  Hg  Hg4  1  0.91058700  0.42686500  0.23617210  1
  Hg  Hg5  1  0.58941300  0.92686500  0.26382790  1
  Hg  Hg6  1  0.08941300  0.57313500  0.76382790  1
  Hg  Hg7  1  0.41058700  0.07313500  0.73617210  1
  Hg  Hg8  1  0.90386600  0.95845500  0.23901214  1
  Hg  Hg9  1  0.59613400  0.45845500  0.26098786  1
  Hg  Hg10  1  0.09613400  0.04154500  0.76098786  1
  Hg  Hg11  1  0.40386600  0.54154500  0.73901214  1
  Sm  Sm12  1  0.00040400  0.23001400  0.49961411  1
  Sm  Sm13  1  0.49959600  0.73001400  0.00038589  1
  Sm  Sm14  1  0.00000000  0.76998600  0.50038589  1
  Sm  Sm15  1  0.50040400  0.26998600  0.00000000  1
  Cl  Cl16  1  0.07252000  0.67373000  0.23011800  1
  Cl  Cl17  1  0.42748000  0.17373000  0.26988200  1
  Cl  Cl18  1  0.92748000  0.32627000  0.76988200  1
  Cl  Cl19  1  0.57252000  0.82627000  0.73011800  1
  Cl  Cl20  1  0.24243000  0.46553000  0.31906100  1
  Cl  Cl21  1  0.25757000  0.96553000  0.18093900  1
  Cl  Cl22  1  0.75757000  0.53447000  0.68093900  1
  Cl  Cl23  1  0.74243000  0.03447000  0.81906100  1
  Cl  Cl24  1  0.08093160  0.24032000  0.23171800  1
  Cl  Cl25  1  0.41906840  0.74032000  0.26828200  1
  Cl  Cl26  1  0.91906840  0.75968000  0.76828200  1
  Cl  Cl27  1  0.58093160  0.25968000  0.73171800  1
  Cl  Cl28  1  0.75625840  0.21043000  0.24954600  1
  Cl  Cl29  1  0.74374160  0.71043000  0.25045400  1
  Cl  Cl30  1  0.24374160  0.78957000  0.75045400  1
  Cl  Cl31  1  0.25625840  0.28957000  0.74954600  1
  Cl  Cl32  1  0.94668000  0.95688000  0.30836800  1
  Cl  Cl33  1  0.55332000  0.45688000  0.19163200  1
  Cl  Cl34  1  0.05332000  0.04312000  0.69163200  1
  Cl  Cl35  1  0.44668000  0.54312000  0.80836800  1
  Cl  Cl36  1  0.86947000  0.96346000  0.16895100  1
  Cl  Cl37  1  0.63053000  0.46346000  0.33104900  1
  Cl  Cl38  1  0.13053000  0.03654000  0.83104900  1
  Cl  Cl39  1  0.36947000  0.53654000  0.66895100  1
  O  O48  1  0.41586000  0.61358000  0.05422000  1
  O  O49  1  0.08414000  0.11358000  0.44578000  1
  O  O50  1  0.58414000  0.38642000  0.94578000  1
  O  O51  1  0.91586000  0.88642000  0.55422000  1
  O  O52  1  0.38096000  0.38247000  0.04472000  1
  O  O53  1  0.11904000  0.88247000  0.45528000  1
  O  O54  1  0.61904000  0.61753000  0.95528000  1
  O  O55  1  0.88096000  0.11753000  0.54472000  1
  O  O56  1  0.96114000  0.63398000  0.44262000  1
  O  O57  1  0.53886000  0.13398000  0.05738000  1
  O  O58  1  0.03886000  0.36602000  0.55738000  1
  O  O59  1  0.46114000  0.86602000  0.94262000  1
  O  O60  1  0.01317000  0.40089000  0.45082000  1
  O  O61  1  0.48683000  0.90089000  0.04918000  1
  O  O62  1  0.98683000  0.59911000  0.54918000  1
  O  O63  1  0.51317000  0.09911000  0.95082000  1
  O  O64  1  0.64634000  0.65828000  0.04932000  1
  O  O65  1  0.85366000  0.15828000  0.45068000  1
  O  O66  1  0.35366000  0.34172000  0.95068000  1
  O  O67  1  0.14634000  0.84172000  0.54932000  1
  O  O68  1  0.61635000  0.42287000  0.03962000  1
  O  O69  1  0.88365000  0.92287000  0.46038000  1
  O  O70  1  0.38365000  0.57713000  0.96038000  1
  O  O71  1  0.11635000  0.07713000  0.53962000  1
  N  N72  1  0.27964000  0.46856000  0.18737180  1
  N  N73  1  0.22036000  0.96856000  0.31262820  1
  N  N74  1  0.72036000  0.53144000  0.81262820  1
  N  N75  1  0.77964000  0.03144000  0.68737180  1
  N  N76  1  0.93375000  0.44687000  0.30222000  1
  N  N77  1  0.56625000  0.94687000  0.19778000  1
  N  N78  1  0.06625000  0.55313000  0.69778000  1
  N  N79  1  0.43375000  0.05313000  0.80222000  1
  N  N80  1  0.84725000  0.46157000  0.17592000  1
  N  N81  1  0.65275000  0.96157000  0.32408000  1
  N  N82  1  0.15275000  0.53843000  0.82408000  1
  N  N83  1  0.34725000  0.03843000  0.67592000  1
  C  C84  1  0.28938000  0.59231100  0.16833000  1
  C  C85  1  0.21062000  0.09231100  0.33167000  1
  C  C86  1  0.71062000  0.40768900  0.83167000  1
  C  C87  1  0.78938000  0.90768900  0.66833000  1
  H  H88  1  0.27150000  0.67570000  0.18090000  1
  H  H89  1  0.22850000  0.17570000  0.31910000  1
  H  H90  1  0.72850000  0.32430000  0.81910000  1
  H  H91  1  0.77150000  0.82430000  0.68090000  1
  C  C92  1  0.32279000  0.59241200  0.13313000  1
  C  C93  1  0.17721000  0.09241200  0.36687000  1
  C  C94  1  0.67721000  0.40758800  0.86687000  1
  C  C95  1  0.82279000  0.90758800  0.63313000  1
  H  H96  1  0.34540000  0.68000000  0.12450000  1
  H  H97  1  0.15460000  0.18000000  0.37550000  1
  H  H98  1  0.65460000  0.32000000  0.87550000  1
  H  H99  1  0.84540000  0.82000000  0.62450000  1
  C  C100  1  0.33147000  0.49810000  0.10763000  1
  C  C101  1  0.16853000  0.00000000  0.39237000  1
  C  C102  1  0.66853000  0.50190000  0.89237000  1
  C  C103  1  0.83147000  0.00190000  0.60763000  1
  C  C104  1  0.31527000  0.36569000  0.12443000  1
  C  C105  1  0.18473000  0.86569000  0.37557000  1
  C  C106  1  0.68473000  0.63431000  0.87557000  1
  C  C107  1  0.81527000  0.13431000  0.62443000  1
  H  H108  1  0.32600000  0.28610000  0.10880000  1
  H  H109  1  0.17400000  0.78610000  0.39120000  1
  H  H110  1  0.67400000  0.71390000  0.89120000  1
  H  H111  1  0.82600000  0.21390000  0.60880000  1
  C  C112  1  0.28549000  0.35161200  0.16144000  1
  C  C113  1  0.21451000  0.85161200  0.33856000  1
  C  C114  1  0.71451000  0.64838800  0.83856000  1
  C  C115  1  0.78549000  0.14838800  0.66144000  1
  H  H116  1  0.26760000  0.26320000  0.17090000  1
  H  H117  1  0.23240000  0.76320000  0.32910000  1
  H  H118  1  0.73240000  0.73680000  0.82910000  1
  H  H119  1  0.76760000  0.23680000  0.67090000  1
  C  C120  1  0.37947000  0.50211000  0.06393000  1
  C  C121  1  0.12053000  0.00211000  0.43607000  1
  C  C122  1  0.62053000  0.49789000  0.93607000  1
  C  C123  1  0.87947000  0.00000000  0.56393000  1
  C  C124  1  0.93273000  0.33829000  0.32773000  1
  C  C125  1  0.56727000  0.83829000  0.17227000  1
  C  C126  1  0.06727000  0.66171000  0.67227000  1
  C  C127  1  0.43273000  0.16171000  0.82773000  1
  H  H128  1  0.91710000  0.24920000  0.31720000  1
  H  H129  1  0.58290000  0.74920000  0.18280000  1
  H  H130  1  0.08290000  0.75080000  0.68280000  1
  H  H131  1  0.41710000  0.25080000  0.81720000  1
  C  C132  1  0.95333000  0.35311000  0.36683000  1
  C  C133  1  0.54667000  0.85311000  0.13317000  1
  C  C134  1  0.04667000  0.64689000  0.63317000  1
  C  C135  1  0.45333000  0.14689000  0.86683000  1
  H  H136  1  0.96420000  0.27440000  0.38330000  1
  H  H137  1  0.53580000  0.77440000  0.11670000  1
  H  H138  1  0.03580000  0.72560000  0.61670000  1
  H  H139  1  0.46420000  0.22560000  0.88330000  1
  C  C140  1  0.95945000  0.49138000  0.38492000  1
  C  C141  1  0.54055000  0.99138000  0.11508000  1
  C  C142  1  0.04055000  0.50862000  0.61508000  1
  C  C143  1  0.45945000  0.00862000  0.88492000  1
  C  C144  1  0.96134000  0.60208000  0.35652000  1
  C  C145  1  0.53866000  0.10208000  0.14348000  1
  C  C146  1  0.03866000  0.39792000  0.64348000  1
  C  C147  1  0.46134000  0.89792000  0.85652000  1
  H  H148  1  0.96950000  0.69270000  0.36660000  1
  H  H149  1  0.53050000  0.19270000  0.13340000  1
  H  H150  1  0.03050000  0.30730000  0.63340000  1
  H  H151  1  0.46950000  0.80730000  0.86660000  1
  C  C152  1  0.95223000  0.58551000  0.31673000  1
  C  C153  1  0.54777000  0.08551000  0.18327000  1
  C  C154  1  0.04777000  0.41449000  0.68327000  1
  C  C155  1  0.45223000  0.91449000  0.81673000  1
  H  H156  1  0.95780000  0.66080000  0.29900000  1
  H  H157  1  0.54220000  0.16080000  0.20100000  1
  H  H158  1  0.04220000  0.33920000  0.70100000  1
  H  H159  1  0.45780000  0.83920000  0.79900000  1
  C  C160  1  0.97542000  0.51081000  0.42873000  1
  C  C161  1  0.52458000  0.01081000  0.07127000  1
  C  C162  1  0.02458000  0.48919000  0.57127000  1
  C  C163  1  0.47542000  0.98919000  0.92873000  1
  C  C164  1  0.83413000  0.58469000  0.15893000  1
  C  C165  1  0.66587000  0.08469000  0.34107000  1
  C  C166  1  0.16587000  0.41531000  0.84107000  1
  C  C167  1  0.33413000  0.91531000  0.65893000  1
  H  H168  1  0.86220000  0.66480000  0.17220000  1
  H  H169  1  0.63780000  0.16480000  0.32780000  1
  H  H170  1  0.13780000  0.33520000  0.82780000  1
  H  H171  1  0.36220000  0.83520000  0.67220000  1
  C  C172  1  0.77301000  0.59301200  0.11793000  1
  C  C173  1  0.72699000  0.09301200  0.38207000  1
  C  C174  1  0.22699000  0.40698800  0.88207000  1
  C  C175  1  0.27301000  0.90698800  0.61793000  1
  H  H176  1  0.76610000  0.68070000  0.10560000  1
  H  H177  1  0.73390000  0.18070000  0.39440000  1
  H  H178  1  0.23390000  0.31930000  0.89440000  1
  H  H179  1  0.26610000  0.81930000  0.60560000  1
  C  C180  1  0.73194000  0.49459000  0.09922000  1
  C  C181  1  0.76806000  0.99459000  0.40078000  1
  C  C182  1  0.26806000  0.50541000  0.90078000  1
  C  C183  1  0.23194000  0.00541000  0.59922000  1
  C  C184  1  0.75302000  0.36081100  0.11073000  1
  C  C185  1  0.74698000  0.86081100  0.38927000  1
  C  C186  1  0.24698000  0.63918900  0.88927000  1
  C  C187  1  0.25302000  0.13918900  0.61073000  1
  H  H188  1  0.73670000  0.28430000  0.09380000  1
  H  H189  1  0.76330000  0.78430000  0.40620000  1
  H  H190  1  0.26330000  0.71570000  0.90620000  1
  H  H191  1  0.23670000  0.21570000  0.59380000  1
  C  C192  1  0.80411000  0.34831200  0.15233000  1
  C  C193  1  0.69589000  0.84831200  0.34767000  1
  C  C194  1  0.19589000  0.65168800  0.84767000  1
  C  C195  1  0.30411000  0.15168800  0.65233000  1
  H  H196  1  0.80840000  0.25950000  0.16390000  1
  H  H197  1  0.69160000  0.75950000  0.33610000  1
  H  H198  1  0.19160000  0.74050000  0.83610000  1
  H  H199  1  0.30840000  0.24050000  0.66390000  1
  C  C200  1  0.65853000  0.51781000  0.05783000  1
  C  C201  1  0.84147000  0.01781000  0.44217000  1
  C  C202  1  0.34147000  0.48219000  0.94217000  1
  C  C203  1  0.15853000  0.98219000  0.55783000  1
