# generated using pymatgen
data_TbP4H36Ru2(CO7)4
_symmetry_space_group_name_H-M   'P 1'
_cell_length_a   12.45830000
_cell_length_b   14.58340000
_cell_length_c   15.52440000
_cell_angle_alpha   90.00000000
_cell_angle_beta   94.49740000
_cell_angle_gamma   90.00000000
_symmetry_Int_Tables_number   1
_chemical_formula_structural   TbP4H36Ru2(CO7)4
_chemical_formula_sum   'Tb4 P16 Ru8 H144 C16 O112'
_cell_volume   2811.85612115
_cell_formula_units_Z   4
loop_
 _symmetry_equiv_pos_site_id
 _symmetry_equiv_pos_as_xyz
  1  'x, y, z'
loop_
 _atom_site_type_symbol
 _atom_site_label
 _atom_site_symmetry_multiplicity
 _atom_site_fract_x
 _atom_site_fract_y
 _atom_site_fract_z
 _atom_site_occupancy
  Ru  Ru0  1  0.66680700  0.21207200  0.49795200  1
  Ru  Ru1  1  0.16680700  0.71207200  0.49795200  1
  Ru  Ru2  1  0.33319300  0.21207200  0.00204800  1
  Ru  Ru3  1  0.83319300  0.71207200  0.00204800  1
  Ru  Ru4  1  0.33319300  0.78792800  0.50204800  1
  Ru  Ru5  1  0.83319300  0.28792800  0.50204800  1
  Ru  Ru6  1  0.66680700  0.78792800  0.00000000  1
  Ru  Ru7  1  0.16680700  0.28792800  0.00000000  1
  Tb  Tb8  1  0.00000000  0.01102619  0.25000000  1
  Tb  Tb9  1  0.50000000  0.51102619  0.25000000  1
  Tb  Tb10  1  0.00000000  0.98897381  0.75000000  1
  Tb  Tb11  1  0.50000000  0.48897381  0.75000000  1
  P  P12  1  0.80036100  0.15487800  0.35460700  1
  P  P13  1  0.30036100  0.65487800  0.35460700  1
  P  P14  1  0.19963900  0.15487800  0.14539300  1
  P  P15  1  0.69963900  0.65487800  0.14539300  1
  P  P16  1  0.19963900  0.84512200  0.64539300  1
  P  P17  1  0.69963900  0.34512200  0.64539300  1
  P  P18  1  0.80036100  0.84512200  0.85460700  1
  P  P19  1  0.30036100  0.34512200  0.85460700  1
  P  P20  1  0.68576900  0.33713800  0.34635700  1
  P  P21  1  0.18576900  0.83713800  0.34635700  1
  P  P22  1  0.31423100  0.33713800  0.15364300  1
  P  P23  1  0.81423100  0.83713800  0.15364300  1
  P  P24  1  0.31423100  0.66286200  0.65364300  1
  P  P25  1  0.81423100  0.16286200  0.65364300  1
  P  P26  1  0.68576900  0.66286200  0.84635700  1
  P  P27  1  0.18576900  0.16286200  0.84635700  1
  O  O28  1  0.71178000  0.12052000  0.41026180  1
  O  O29  1  0.21178000  0.62052000  0.41026180  1
  O  O30  1  0.28822000  0.12052000  0.08973820  1
  O  O31  1  0.78822000  0.62052000  0.08973820  1
  O  O32  1  0.28822000  0.87948000  0.58973820  1
  O  O33  1  0.78822000  0.37948000  0.58973820  1
  O  O34  1  0.71178000  0.87948000  0.91026180  1
  O  O35  1  0.21178000  0.37948000  0.91026180  1
  O  O36  1  0.89077000  0.20172000  0.41402000  1
  O  O37  1  0.39077000  0.70172000  0.41402000  1
  O  O38  1  0.10923000  0.20172000  0.08598000  1
  O  O39  1  0.60923000  0.70172000  0.08598000  1
  O  O40  1  0.10923000  0.79828000  0.58598000  1
  O  O41  1  0.60923000  0.29828000  0.58598000  1
  O  O42  1  0.89077000  0.79828000  0.91402000  1
  O  O43  1  0.39077000  0.29828000  0.91402000  1
  O  O44  1  0.84448000  0.08062000  0.30180180  1
  O  O45  1  0.34448000  0.58062000  0.30180180  1
  O  O46  1  0.15552000  0.08062000  0.19819820  1
  O  O47  1  0.65552000  0.58062000  0.19819820  1
  O  O48  1  0.15552000  0.91938000  0.69819820  1
  O  O49  1  0.65552000  0.41938000  0.69819820  1
  O  O50  1  0.84448000  0.91938000  0.80180180  1
  O  O51  1  0.34448000  0.41938000  0.80180180  1
  O  O52  1  0.60157000  0.29292000  0.40112000  1
  O  O53  1  0.10157000  0.79292000  0.40112000  1
  O  O54  1  0.39843000  0.29292000  0.09888000  1
  O  O55  1  0.89843000  0.79292000  0.09888000  1
  O  O56  1  0.39843000  0.70708000  0.59888000  1
  O  O57  1  0.89843000  0.20708000  0.59888000  1
  O  O58  1  0.60157000  0.70708000  0.90112000  1
  O  O59  1  0.10157000  0.20708000  0.90112000  1
  O  O60  1  0.78067000  0.37522000  0.40672000  1
  O  O61  1  0.28067000  0.87522000  0.40672000  1
  O  O62  1  0.21933000  0.37522000  0.09328000  1
  O  O63  1  0.71933000  0.87522000  0.09328000  1
  O  O64  1  0.21933000  0.62478000  0.59328000  1
  O  O65  1  0.71933000  0.12478000  0.59328000  1
  O  O66  1  0.78067000  0.62478000  0.90672000  1
  O  O67  1  0.28067000  0.12478000  0.90672000  1
  O  O68  1  0.63588000  0.40902000  0.28742180  1
  O  O69  1  0.13588000  0.90902000  0.28742180  1
  O  O70  1  0.36412000  0.40902000  0.21257820  1
  O  O71  1  0.86412000  0.90902000  0.21257820  1
  O  O72  1  0.36412000  0.59098000  0.71257820  1
  O  O73  1  0.86412000  0.09098000  0.71257820  1
  O  O74  1  0.63588000  0.59098000  0.78742180  1
  O  O75  1  0.13588000  0.09098000  0.78742180  1
  O  O76  1  0.82347000  0.27532000  0.23244180  1
  O  O77  1  0.32347000  0.77532000  0.23244180  1
  O  O78  1  0.17653000  0.27532000  0.26755820  1
  O  O79  1  0.67653000  0.77532000  0.26755820  1
  O  O80  1  0.17653000  0.72468000  0.76755820  1
  O  O81  1  0.67653000  0.22468000  0.76755820  1
  O  O82  1  0.82347000  0.72468000  0.73244180  1
  O  O83  1  0.32347000  0.22468000  0.73244180  1
  H  H84  1  0.87380000  0.29540000  0.26730000  1
  H  H85  1  0.37380000  0.79540000  0.26730000  1
  H  H86  1  0.12620000  0.29540000  0.23270000  1
  H  H87  1  0.62620000  0.79540000  0.23270000  1
  H  H88  1  0.12620000  0.70460000  0.73270000  1
  H  H89  1  0.62620000  0.20460000  0.73270000  1
  H  H90  1  0.87380000  0.70460000  0.76730000  1
  H  H91  1  0.37380000  0.20460000  0.76730000  1
  C  C164  1  0.73956000  0.24563000  0.28303000  1
  C  C165  1  0.23956000  0.74563000  0.28303000  1
  C  C166  1  0.26044000  0.24563000  0.21697000  1
  C  C167  1  0.76044000  0.74563000  0.21697000  1
  C  C168  1  0.26044000  0.75437000  0.71697000  1
  C  C169  1  0.76044000  0.25437000  0.71697000  1
  C  C170  1  0.73956000  0.75437000  0.78303000  1
  C  C171  1  0.23956000  0.25437000  0.78303000  1
  C  C172  1  0.65206000  0.20513000  0.22053000  1
  C  C173  1  0.15206000  0.70513000  0.22053000  1
  C  C174  1  0.34794000  0.20513000  0.27947000  1
  C  C175  1  0.84794000  0.70513000  0.27947000  1
  C  C176  1  0.34794000  0.79487000  0.77947000  1
  C  C177  1  0.84794000  0.29487000  0.77947000  1
  C  C178  1  0.65206000  0.79487000  0.72053000  1
  C  C179  1  0.15206000  0.29487000  0.72053000  1
  H  H180  1  0.68460000  0.16290000  0.18090000  1
  H  H181  1  0.18460000  0.66290000  0.18090000  1
  H  H182  1  0.31540000  0.16290000  0.31910000  1
  H  H183  1  0.81540000  0.66290000  0.31910000  1
  H  H184  1  0.31540000  0.83710000  0.81910000  1
  H  H185  1  0.81540000  0.33710000  0.81910000  1
  H  H186  1  0.68460000  0.83710000  0.68090000  1
  H  H187  1  0.18460000  0.33710000  0.68090000  1
  H  H188  1  0.61500000  0.25450000  0.18740000  1
  H  H189  1  0.11500000  0.75450000  0.18740000  1
  H  H190  1  0.38500000  0.25450000  0.31260000  1
  H  H191  1  0.88500000  0.75450000  0.31260000  1
  H  H192  1  0.38500000  0.74550000  0.81260000  1
  H  H193  1  0.88500000  0.24550000  0.81260000  1
  H  H194  1  0.61500000  0.74550000  0.68740000  1
  H  H195  1  0.11500000  0.24550000  0.68740000  1
  H  H196  1  0.60020000  0.17160000  0.25300000  1
  H  H197  1  0.10020000  0.67160000  0.25300000  1
  H  H198  1  0.39980000  0.17160000  0.24700000  1
  H  H199  1  0.89980000  0.67160000  0.24700000  1
  H  H200  1  0.39980000  0.82840000  0.74700000  1
  H  H201  1  0.89980000  0.32840000  0.74700000  1
  H  H202  1  0.60020000  0.82840000  0.75300000  1
  H  H203  1  0.10020000  0.32840000  0.75300000  1
