# generated using pymatgen
data_AlH10(C5O2)3
_symmetry_space_group_name_H-M   'P 1'
_cell_length_a   6.60720000
_cell_length_b   10.73040000
_cell_length_c   17.35526956
_cell_angle_alpha   85.67921757
_cell_angle_beta   79.02962618
_cell_angle_gamma   72.06890000
_symmetry_Int_Tables_number   1
_chemical_formula_structural   AlH10(C5O2)3
_chemical_formula_sum   'Al2 H20 C30 O12'
_cell_volume   1149.10762445
_cell_formula_units_Z   2
loop_
 _symmetry_equiv_pos_site_id
 _symmetry_equiv_pos_as_xyz
  1  'x, y, z'
loop_
 _atom_site_type_symbol
 _atom_site_label
 _atom_site_symmetry_multiplicity
 _atom_site_fract_x
 _atom_site_fract_y
 _atom_site_fract_z
 _atom_site_occupancy
  Al  Al0  1  0.50000206  0.49999900  0.50000000  1
  Al  Al1  1  0.00000100  0.49999900  0.50000000  1
  H  H2  1  0.27180400  0.39165200  0.56476000  1
  H  H3  1  0.72820000  0.60834700  0.43523900  1
  H  H4  1  0.68651300  0.50166600  0.26488600  1
  H  H5  1  0.75744400  0.50077100  0.12456900  1
  H  H6  1  0.04687900  0.50179500  0.26485800  1
  H  H7  1  0.95309900  0.49831400  0.73512900  1
  H  H8  1  0.31352600  0.49830100  0.73512400  1
  H  H9  1  0.24261400  0.49922000  0.87544200  1
  H  H10  1  0.19139400  0.22651700  0.40175900  1
  H  H11  1  0.41473600  0.78157300  0.40001900  1
  H  H12  1  0.79713600  0.88926000  0.58353900  1
  H  H13  1  0.68940500  0.10388400  0.58437800  1
  H  H14  1  0.11944900  0.50040800  0.04654100  1
  H  H15  1  0.88056000  0.49974700  0.95344300  1
  H  H16  1  0.70220303  0.13408800  0.30508700  1
  H  H17  1  0.48728400  0.24768700  0.30211200  1
  H  H18  1  0.56600900  0.13645400  0.23994000  1
  H  H19  1  0.69206000  0.88452300  0.23894700  1
  H  H20  1  0.72814400  0.76853700  0.30040600  1
  H  H21  1  0.82871700  0.88216300  0.30394200  1
  C  C22  1  0.86414300  0.27065900  0.50105800  1
  C  C23  1  0.68248100  0.49765200  0.63742300  1
  C  C24  1  0.13586100  0.72934000  0.49894100  1
  C  C25  1  0.31752300  0.50234600  0.36257600  1
  C  C26  1  0.35937900  0.50182000  0.27941200  1
  C  C27  1  0.56479300  0.50151000  0.23620100  1
  C  C28  1  0.60693400  0.50098300  0.15355900  1
  C  C29  1  0.44380800  0.50075100  0.11167400  1
  C  C30  1  0.23852400  0.50105700  0.15354200  1
  C  C31  1  0.19747100  0.50158400  0.23618400  1
  C  C32  1  0.48236500  0.50025800  0.03508600  1
  C  C33  1  0.51769600  0.49980300  0.96491300  1
  C  C34  1  0.55622600  0.49930600  0.88832400  1
  C  C35  1  0.76148300  0.49904000  0.84644900  1
  C  C36  1  0.80252400  0.49849800  0.76380800  1
  C  C37  1  0.64063100  0.49820800  0.72058600  1
  C  C38  1  0.43523700  0.49849100  0.76380500  1
  C  C39  1  0.39310700  0.49903200  0.84644700  1
  C  C40  1  0.93588100  0.12774000  0.50049900  1
  C  C41  1  0.12491200  0.06278200  0.44942200  1
  C  C42  1  0.81414500  0.05863400  0.55105200  1
  C  C43  1  0.24113800  0.13563500  0.40006300  1
  C  C44  1  0.42994000  0.07474800  0.34841200  1
  C  C45  1  0.06412200  0.87225800  0.49950000  1
  C  C46  1  0.87509200  0.93721600  0.55057700  1
  C  C47  1  0.18585900  0.94136500  0.44894700  1
  C  C48  1  0.37318800  0.87256400  0.39903400  1
  C  C49  1  0.49875900  0.93764800  0.34787600  1
  C  C50  1  0.55863700  0.15599600  0.29366500  1
  C  C51  1  0.70676600  0.86089500  0.29251000  1
  O  O52  1  0.66044100  0.33040700  0.50129200  1
  O  O53  1  0.87420800  0.49741400  0.60162000  1
  O  O54  1  0.99214200  0.66959200  0.49870700  1
  O  O55  1  0.47321700  0.50258500  0.39837900  1
  O  O56  1  0.33956200  0.66959200  0.49870700  1
  O  O57  1  0.12579600  0.50258500  0.39837900  1
  O  O58  1  0.00786200  0.33040700  0.50129200  1
  O  O59  1  0.52678700  0.49741400  0.60162000  1
  O  O60  1  0.25821100  0.45920400  0.52438300  1
  O  O61  1  0.74179300  0.54079400  0.47561600  1
  O  O62  1  0.05978700  0.50082500  0.11081200  1
  O  O63  1  0.94020800  0.49932700  0.88917100  1
