# generated using pymatgen
data_Zr3H20(C9O7)4
_symmetry_space_group_name_H-M   'P 1'
_cell_length_a   16.96750000
_cell_length_b   16.96750000
_cell_length_c   16.96750000
_cell_angle_alpha   60.00000000
_cell_angle_beta   60.00000000
_cell_angle_gamma   60.00000000
_symmetry_Int_Tables_number   1
_chemical_formula_structural   Zr3H20(C9O7)4
_chemical_formula_sum   'Zr6 H40 C72 O56'
_cell_volume   3454.12918133
_cell_formula_units_Z   2
loop_
 _symmetry_equiv_pos_site_id
 _symmetry_equiv_pos_as_xyz
  1  'x, y, z'
loop_
 _atom_site_type_symbol
 _atom_site_label
 _atom_site_symmetry_multiplicity
 _atom_site_fract_x
 _atom_site_fract_y
 _atom_site_fract_z
 _atom_site_occupancy
  Zr  Zr0  1  0.39657300  0.89657200  0.60342700  1
  Zr  Zr1  1  0.60342500  0.10342400  0.39657500  1
  Zr  Zr2  1  0.39657300  0.10342300  0.60342700  1
  Zr  Zr3  1  0.60342500  0.89657200  0.39657500  1
  Zr  Zr4  1  0.39657300  0.10342400  0.39657500  1
  Zr  Zr5  1  0.60342500  0.89657200  0.60342700  1
  H  H6  1  0.28454200  0.07181700  0.57182000  1
  H  H7  1  0.57181800  0.07181700  0.28454400  1
  H  H8  1  0.57181800  0.07181700  0.57182000  1
  H  H9  1  0.57181800  0.78454100  0.57182000  1
  H  H10  1  0.16860100  0.12572100  0.37426800  1
  H  H11  1  0.83139200  0.87428000  0.62572300  1
  H  H12  1  0.62572200  0.66860000  0.83140900  1
  H  H13  1  0.37428100  0.33139100  0.16860400  1
  H  H14  1  0.62572200  0.87426400  0.16860300  1
  H  H15  1  0.37428100  0.12572000  0.83139400  1
  H  H16  1  0.83140700  0.66859900  0.37426800  1
  H  H17  1  0.16860100  0.33139100  0.62572300  1
  H  H18  1  0.16859100  0.12573100  0.83139900  1
  H  H19  1  0.83139600  0.87427600  0.16860800  1
  H  H20  1  0.62573200  0.66858900  0.37427800  1
  H  H21  1  0.37427700  0.33139500  0.62571900  1
  H  H22  1  0.04757100  0.81068500  0.68930900  1
  H  H23  1  0.18537200  0.85380000  0.64615100  1
  H  H24  1  0.95244600  0.18930400  0.31067400  1
  H  H25  1  0.81462000  0.14619500  0.35385700  1
  H  H26  1  0.31068500  0.54757000  0.95243400  1
  H  H27  1  0.35380100  0.68537100  0.81467600  1
  H  H28  1  0.68930500  0.45244500  0.04757500  1
  H  H29  1  0.64619600  0.31461900  0.18532700  1
  H  H30  1  0.31068500  0.18930600  0.04757300  1
  H  H31  1  0.35380100  0.14614800  0.18537400  1
  H  H32  1  0.68930500  0.81067000  0.95244800  1
  H  H33  1  0.64619600  0.85385400  0.81462200  1
  H  H34  1  0.95243200  0.54757000  0.68930900  1
  H  H35  1  0.81467400  0.68537100  0.64615100  1
  H  H36  1  0.04757300  0.45244400  0.31067400  1
  H  H37  1  0.18532500  0.31461900  0.35385700  1
  H  H38  1  0.04756600  0.81069000  0.95242900  1
  H  H39  1  0.18532400  0.85384800  0.81462800  1
  H  H40  1  0.95242500  0.18932500  0.04755400  1
  H  H41  1  0.81467300  0.14614200  0.18538000  1
  H  H42  1  0.31069100  0.54756400  0.68931500  1
  H  H43  1  0.35384900  0.68532300  0.64619900  1
  H  H44  1  0.68932600  0.45242300  0.31069500  1
  H  H45  1  0.64614300  0.31467200  0.35380400  1
  C  C46  1  0.23498600  0.99999800  0.50000100  1
  C  C47  1  0.49999900  0.26501100  0.23498800  1
  C  C48  1  0.76501200  0.99999800  0.50000100  1
  C  C49  1  0.49999900  0.73498500  0.76501400  1
  C  C50  1  0.23498600  0.99999800  0.76501400  1
  C  C51  1  0.49999900  0.73498500  0.50000100  1
  C  C52  1  0.76501200  0.99999800  0.23498800  1
  C  C53  1  0.49999900  0.26501100  0.50000100  1
  C  C54  1  0.23498600  0.26501100  0.50000100  1
  C  C55  1  0.49999900  0.99999800  0.76501400  1
  C  C56  1  0.76501200  0.73498500  0.50000100  1
  C  C57  1  0.49999900  0.99999800  0.23498800  1
  C  C58  1  0.09452600  0.94231200  0.55768700  1
  C  C59  1  0.12396600  0.08025600  0.41974300  1
  C  C60  1  0.04398200  0.10157500  0.39842400  1
  C  C61  1  0.98758300  0.03987600  0.46012300  1
  C  C62  1  0.90547100  0.05768400  0.44231500  1
  C  C63  1  0.87603200  0.91973900  0.58026000  1
  C  C64  1  0.95601500  0.89842100  0.60157800  1
  C  C65  1  0.01241400  0.96011900  0.53988000  1
  C  C66  1  0.14773100  0.99999800  0.50000100  1
  C  C67  1  0.85226700  0.99999800  0.50000100  1
  C  C68  1  0.44231300  0.59452500  0.90547400  1
  C  C69  1  0.58025700  0.62396500  0.87603400  1
  C  C70  1  0.60157600  0.54398100  0.95601800  1
  C  C71  1  0.53987700  0.48758200  0.01241700  1
  C  C72  1  0.55768500  0.40547000  0.09452900  1
  C  C73  1  0.41974000  0.37603100  0.12396800  1
  C  C74  1  0.39842200  0.45601400  0.04398500  1
  C  C75  1  0.46012000  0.51241300  0.98758600  1
  C  C76  1  0.49999900  0.64773000  0.85226900  1
  C  C77  1  0.49999900  0.35226600  0.14773300  1
  C  C78  1  0.44231300  0.05768300  0.09452900  1
  C  C79  1  0.58025700  0.91974000  0.12396800  1
  C  C80  1  0.60157600  0.89841800  0.04398500  1
  C  C81  1  0.53987700  0.96011900  0.98758600  1
  C  C82  1  0.55768500  0.94231100  0.90547400  1
  C  C83  1  0.41974000  0.08025600  0.87603400  1
  C  C84  1  0.39842200  0.10157700  0.95601800  1
  C  C85  1  0.46012000  0.03987600  0.01241700  1
  C  C86  1  0.49999900  0.99999800  0.14773300  1
  C  C87  1  0.49999900  0.99999800  0.85226900  1
  C  C88  1  0.90547100  0.59452500  0.55768700  1
  C  C89  1  0.87603200  0.62396500  0.41974300  1
  C  C90  1  0.95601500  0.54397900  0.39842400  1
  C  C91  1  0.01241400  0.48758200  0.46012300  1
  C  C92  1  0.09452600  0.40547000  0.44231500  1
  C  C93  1  0.12396600  0.37603000  0.58026000  1
  C  C94  1  0.04398200  0.45601700  0.60157800  1
  C  C95  1  0.98758300  0.51241300  0.53988000  1
  C  C96  1  0.85226700  0.64773000  0.50000100  1
  C  C97  1  0.14773100  0.35226600  0.50000100  1
  C  C98  1  0.09452600  0.94231100  0.90547400  1
  C  C99  1  0.12396600  0.08025600  0.87603400  1
  C  C100  1  0.04398200  0.10157700  0.95601800  1
  C  C101  1  0.98758300  0.03987600  0.01241700  1
  C  C102  1  0.90547100  0.05768300  0.09452900  1
  C  C103  1  0.87603200  0.91974000  0.12396800  1
  C  C104  1  0.95601500  0.89841800  0.04398500  1
  C  C105  1  0.01241400  0.96011900  0.98758600  1
  C  C106  1  0.14773100  0.99999800  0.85226900  1
  C  C107  1  0.85226700  0.99999800  0.14773300  1
  C  C108  1  0.44231300  0.59452500  0.55768700  1
  C  C109  1  0.58025700  0.62396500  0.41974300  1
  C  C110  1  0.60157600  0.54397900  0.39842400  1
  C  C111  1  0.53987700  0.48758200  0.46012300  1
  C  C112  1  0.55768500  0.40547000  0.44231500  1
  C  C113  1  0.41974000  0.37603000  0.58026000  1
  C  C114  1  0.39842200  0.45601700  0.60157800  1
  C  C115  1  0.46012000  0.51241300  0.53988000  1
  C  C116  1  0.49999900  0.64773000  0.50000100  1
  C  C117  1  0.49999900  0.35226600  0.50000100  1
  O  O118  1  0.27072600  0.93515100  0.56484800  1
  O  O119  1  0.56484600  0.22927000  0.27072900  1
  O  O120  1  0.72927100  0.06484500  0.43515400  1
  O  O121  1  0.43515200  0.77072500  0.72927400  1
  O  O122  1  0.27072600  0.06484400  0.72927400  1
  O  O123  1  0.56484600  0.77072500  0.43515400  1
  O  O124  1  0.72927100  0.93515000  0.27072900  1
  O  O125  1  0.43515200  0.22927000  0.56484800  1
  O  O126  1  0.27072600  0.22927000  0.43515400  1
  O  O127  1  0.56484600  0.93515000  0.72927400  1
  O  O128  1  0.72927100  0.77072500  0.56484800  1
  O  O129  1  0.43515200  0.06484500  0.27072900  1
  O  O130  1  0.43515200  0.06484400  0.72927400  1
  O  O131  1  0.72927100  0.77072500  0.43515400  1
  O  O132  1  0.56484600  0.93515000  0.27072900  1
  O  O133  1  0.27072600  0.22927000  0.56484800  1
  O  O134  1  0.27072600  0.93515000  0.72927400  1
  O  O135  1  0.56484600  0.22927000  0.43515400  1
  O  O136  1  0.72927100  0.06484500  0.27072900  1
  O  O137  1  0.43515200  0.77072600  0.56484800  1
  O  O138  1  0.56484600  0.77072500  0.72927400  1
  O  O139  1  0.27072600  0.06484500  0.43515400  1
  O  O140  1  0.43515200  0.22927000  0.27072900  1
  O  O141  1  0.72927100  0.93515100  0.56484800  1
  O  O142  1  0.54839500  0.85481000  0.54839700  1
  O  O143  1  0.54839500  0.04839400  0.54839700  1
  O  O144  1  0.54839500  0.04839400  0.35481300  1
  O  O145  1  0.35481100  0.04839400  0.54839700  1
  O  O146  1  0.45160300  0.14518600  0.45160500  1
  O  O147  1  0.45160300  0.95160200  0.45160500  1
  O  O148  1  0.64518700  0.95160200  0.45160500  1
  O  O149  1  0.45160300  0.95160200  0.64518900  1
  O  O150  1  0.98220800  0.81336800  0.68662800  1
  O  O151  1  0.12002700  0.85703300  0.64293700  1
  O  O152  1  0.01780300  0.18662100  0.31336500  1
  O  O153  1  0.87996600  0.14296400  0.35706700  1
  O  O154  1  0.31336900  0.48220600  0.01779600  1
  O  O155  1  0.35703400  0.62002600  0.88000200  1
  O  O156  1  0.68662300  0.51780300  0.98220900  1
  O  O157  1  0.64296500  0.37996500  0.12000200  1
  O  O158  1  0.31336900  0.18662700  0.98221000  1
  O  O159  1  0.35703400  0.14293400  0.12002900  1
  O  O160  1  0.68662300  0.81335900  0.01780600  1
  O  O161  1  0.64296500  0.85706400  0.87996800  1
  O  O162  1  0.01779300  0.48220900  0.68662800  1
  O  O163  1  0.88000000  0.62002600  0.64293700  1
  O  O164  1  0.98220700  0.51780000  0.31336500  1
  O  O165  1  0.12000000  0.37996500  0.35706700  1
  O  O166  1  0.98220400  0.81336900  0.01779200  1
  O  O167  1  0.11999800  0.85706100  0.87997300  1
  O  O168  1  0.01779100  0.18663600  0.98219700  1
  O  O169  1  0.87999800  0.14293100  0.12003400  1
  O  O170  1  0.31337200  0.48220600  0.68663100  1
  O  O171  1  0.35706300  0.61999700  0.64296600  1
  O  O172  1  0.68663500  0.51778800  0.31337700  1
  O  O173  1  0.64293300  0.37999700  0.35703500  1
