# generated using pymatgen
data_AlH24C24(N2O)6
_symmetry_space_group_name_H-M   'P 1'
_cell_length_a   4.31870000
_cell_length_b   28.80840000
_cell_length_c   28.80988048
_cell_angle_alpha   120.00170000
_cell_angle_beta   90.00000000
_cell_angle_gamma   90.00000000
_symmetry_Int_Tables_number   1
_chemical_formula_structural   AlH24C24(N2O)6
_chemical_formula_sum   'Al2 H48 C48 N24 O12'
_cell_volume   3104.10800365
_cell_formula_units_Z   2
loop_
 _symmetry_equiv_pos_site_id
 _symmetry_equiv_pos_as_xyz
  1  'x, y, z'
loop_
 _atom_site_type_symbol
 _atom_site_label
 _atom_site_symmetry_multiplicity
 _atom_site_fract_x
 _atom_site_fract_y
 _atom_site_fract_z
 _atom_site_occupancy
  Al  Al0  1  0.00000800  0.99999900  0.49999900  1
  Al  Al1  1  0.99952564  0.33330100  0.16664000  1
  H  H2  1  0.34752500  0.44108300  0.12710200  1
  H  H3  1  0.65137000  0.49056100  0.12853900  1
  H  H4  1  0.65182700  0.44108800  0.31400500  1
  H  H5  1  0.34809900  0.49059100  0.36205300  1
  H  H6  1  0.34817700  0.62637400  0.40647800  1
  H  H7  1  0.65203000  0.57702200  0.40530100  1
  H  H8  1  0.65156700  0.62634900  0.21988100  1
  H  H9  1  0.34761700  0.57701000  0.17171900  1
  H  H10  1  0.34801400  0.70696100  0.26019100  1
  H  H11  1  0.65188300  0.75630300  0.26135100  1
  H  H12  1  0.65188000  0.70695400  0.44675400  1
  H  H13  1  0.34806900  0.75630300  0.49494400  1
  H  H14  1  0.34812300  0.89223300  0.53957300  1
  H  H15  1  0.65195300  0.84273900  0.53810600  1
  H  H16  1  0.65193600  0.89223400  0.35265500  1
  H  H17  1  0.34807200  0.84274700  0.30462900  1
  H  H18  1  0.34752500  0.18601000  0.05888300  1
  H  H19  1  0.65137000  0.13796700  0.00940600  1
  H  H20  1  0.65182700  0.37292100  0.05888400  1
  H  H21  1  0.34809900  0.37146700  0.00938400  1
  H  H22  1  0.34817700  0.28010800  0.87360800  1
  H  H23  1  0.65203000  0.32828550  0.92295850  1
  H  H24  1  0.65156700  0.09352500  0.87362800  1
  H  H25  1  0.34761700  0.09469960  0.92296260  1
  H  H26  1  0.34801400  0.05322100  0.79301800  1
  H  H27  1  0.65188300  0.00503800  0.74367900  1
  H  H28  1  0.65188000  0.23980600  0.79303300  1
  H  H29  1  0.34806900  0.23864800  0.74368700  1
  H  H30  1  0.34812300  0.14734500  0.60776300  1
  H  H31  1  0.65195300  0.19537300  0.65725500  1
  H  H32  1  0.65193600  0.96041300  0.60775600  1
  H  H33  1  0.34807200  0.96187200  0.65723900  1
  H  H34  1  0.34752500  0.37290200  0.31401300  1
  H  H35  1  0.65137000  0.37146600  0.36205200  1
  H  H36  1  0.65182700  0.18598600  0.12710900  1
  H  H37  1  0.34809900  0.13793600  0.12856000  1
  H  H38  1  0.34817700  0.09351400  0.21991200  1
  H  H39  1  0.65203000  0.09468970  0.17173900  1
  H  H40  1  0.65156700  0.28012400  0.40649000  1
  H  H41  1  0.34761700  0.32828770  0.40531700  1
  H  H42  1  0.34801400  0.23981400  0.44678900  1
  H  H43  1  0.65188300  0.23865600  0.49496900  1
  H  H44  1  0.65188000  0.05323700  0.26021100  1
  H  H45  1  0.34806900  0.00504700  0.26136800  1
  H  H46  1  0.34812300  0.96041800  0.35266200  1
  H  H47  1  0.65195300  0.96188400  0.30463700  1
  H  H48  1  0.65193600  0.14735000  0.53958700  1
  H  H49  1  0.34807200  0.19537700  0.53813000  1
  C  C50  1  0.50000400  0.04085700  0.45915000  1
  C  C51  1  0.50000400  0.91828700  0.45914100  1
  C  C52  1  0.50000400  0.04085300  0.58170700  1
  C  C53  1  0.49963100  0.41503200  0.20752800  1
  C  C54  1  0.49932900  0.29246000  0.08497000  1
  C  C55  1  0.49962900  0.29247000  0.20753400  1
  C  C56  1  0.49970700  0.47582500  0.23792100  1
  C  C57  1  0.49964100  0.50533900  0.21055900  1
  C  C58  1  0.49970200  0.56178300  0.23865300  1
  C  C59  1  0.49983200  0.59038700  0.29519500  1
  C  C60  1  0.49990800  0.56179000  0.32314000  1
  C  C61  1  0.49984800  0.50534700  0.29479700  1
  C  C62  1  0.49987700  0.64269600  0.32134500  1
  C  C63  1  0.49991100  0.69062300  0.34530400  1
  C  C64  1  0.49994800  0.74293200  0.37146100  1
  C  C65  1  0.49996400  0.77153300  0.34352000  1
  C  C66  1  0.49999100  0.82797700  0.37186700  1
  C  C67  1  0.50000400  0.85749500  0.42874400  1
  C  C68  1  0.50000400  0.82797600  0.45610100  1
  C  C69  1  0.49997600  0.77153200  0.42800300  1
  C  C70  1  0.49970700  0.26209400  0.02414600  1
  C  C71  1  0.49964100  0.20521517  0.99463217  1
  C  C72  1  0.49970200  0.17686550  0.93819150  1
  C  C73  1  0.49983200  0.20480600  0.90959000  1
  C  C74  1  0.49990800  0.26135110  0.93818710  1
  C  C75  1  0.49984800  0.28945189  0.99462789  1
  C  C76  1  0.49987700  0.17864700  0.85728400  1
  C  C77  1  0.49991100  0.15467900  0.80935900  1
  C  C78  1  0.49994800  0.12852700  0.75705300  1
  C  C79  1  0.49996400  0.07198300  0.72845200  1
  C  C80  1  0.49999100  0.04388600  0.67201100  1
  C  C81  1  0.50000400  0.07124700  0.64249600  1
  C  C82  1  0.50000400  0.12812600  0.67201500  1
  C  C83  1  0.49997600  0.15647200  0.72845600  1
  C  C84  1  0.49970700  0.26207600  0.23793000  1
  C  C85  1  0.49964100  0.28944221  0.29480700  1
  C  C86  1  0.49970200  0.26134860  0.32315400  1
  C  C87  1  0.49983200  0.20480310  0.29521300  1
  C  C88  1  0.49990800  0.17685540  0.23867100  1
  C  C89  1  0.49984800  0.20519815  0.21057300  1
  C  C90  1  0.49987700  0.17865400  0.32137000  1
  C  C91  1  0.49991100  0.15469500  0.34533500  1
  C  C92  1  0.49994800  0.12853700  0.37148400  1
  C  C93  1  0.49996400  0.15648100  0.42802600  1
  C  C94  1  0.49999100  0.12813400  0.45612000  1
  C  C95  1  0.50000400  0.07125400  0.42875800  1
  C  C96  1  0.50000400  0.04389500  0.37188200  1
  C  C97  1  0.49997600  0.07199300  0.34353900  1
  N  N98  1  0.49949900  0.47644300  0.15005800  1
  N  N99  1  0.49993200  0.47645800  0.32641000  1
  N  N100  1  0.50005100  0.59097200  0.38364900  1
  N  N101  1  0.49962100  0.59095600  0.20731700  1
  N  N102  1  0.49995200  0.74235600  0.28301100  1
  N  N103  1  0.49997500  0.74235300  0.45933400  1
  N  N104  1  0.50002900  0.85686700  0.51660200  1
  N  N105  1  0.50000100  0.85687000  0.34025900  1
  N  N106  1  0.49949900  0.17360700  0.02352500  1
  N  N107  1  0.49993200  0.34995600  0.02351600  1
  N  N108  1  0.50005100  0.29268110  0.90900810  1
  N  N109  1  0.49962100  0.11635290  0.90901790  1
  N  N110  1  0.49995200  0.04064700  0.75762600  1
  N  N111  1  0.49997500  0.21698500  0.75763500  1
  N  N112  1  0.50002900  0.15974000  0.64312700  1
  N  N113  1  0.50000100  0.98338100  0.64311700  1
  N  N114  1  0.49949900  0.34994600  0.32641500  1
  N  N115  1  0.49993200  0.17358200  0.15007200  1
  N  N116  1  0.50005100  0.11634320  0.20734100  1
  N  N117  1  0.49962100  0.29268710  0.38366300  1
  N  N118  1  0.49995200  0.21699300  0.45936100  1
  N  N119  1  0.49997500  0.04065900  0.28303000  1
  N  N120  1  0.50002900  0.98339000  0.34026900  1
  N  N121  1  0.50000100  0.15974500  0.51662100  1
  O  O122  1  0.72331200  0.00569000  0.55703300  1
  O  O123  1  0.72331200  0.05134500  0.49431100  1
  O  O124  1  0.72331200  0.94296200  0.44865400  1
  O  O125  1  0.27669600  0.05134400  0.55703600  1
  O  O126  1  0.27669600  0.94296100  0.49430400  1
  O  O127  1  0.27669600  0.00569300  0.44865900  1
  O  O128  1  0.72285100  0.28196900  0.17235500  1
  O  O129  1  0.72296500  0.39035100  0.21800200  1
  O  O130  1  0.72269800  0.32761600  0.10962500  1
  O  O131  1  0.27634700  0.32764100  0.21803800  1
  O  O132  1  0.27608100  0.28198100  0.10966000  1
  O  O133  1  0.27623700  0.39036500  0.17238300  1
