# generated using pymatgen
data_ZnH12C12(N3O2)2
_symmetry_space_group_name_H-M   'P 1'
_cell_length_a   10.00000000
_cell_length_b   18.64230000
_cell_length_c   18.70269623
_cell_angle_alpha   90.11031969
_cell_angle_beta   90.00000000
_cell_angle_gamma   90.00000000
_symmetry_Int_Tables_number   1
_chemical_formula_structural   ZnH12C12(N3O2)2
_chemical_formula_sum   'Zn4 H48 C48 N24 O16'
_cell_volume   3486.60627572
_cell_formula_units_Z   4
loop_
 _symmetry_equiv_pos_site_id
 _symmetry_equiv_pos_as_xyz
  1  'x, y, z'
loop_
 _atom_site_type_symbol
 _atom_site_label
 _atom_site_symmetry_multiplicity
 _atom_site_fract_x
 _atom_site_fract_y
 _atom_site_fract_z
 _atom_site_occupancy
  Zn  Zn0  1  0.33423400  0.99982000  0.49990600  1
  Zn  Zn1  1  0.66576600  0.00019100  0.50007500  1
  Zn  Zn2  1  0.66575500  0.49913300  0.00112300  1
  Zn  Zn3  1  0.33422200  0.49892600  0.00079000  1
  H  H4  1  0.73454000  0.87862000  0.42835400  1
  H  H5  1  0.83290700  0.89023000  0.34081500  1
  H  H6  1  0.84898400  0.75418900  0.20531100  1
  H  H7  1  0.89043200  0.75547900  0.30568500  1
  H  H8  1  0.77544000  0.66547800  0.11699000  1
  H  H9  1  0.81575400  0.66691100  0.21749500  1
  H  H10  1  0.26543500  0.57094700  0.12195500  1
  H  H11  1  0.16704100  0.65875500  0.11033100  1
  H  H12  1  0.15097300  0.79477400  0.24583000  1
  H  H13  1  0.10958000  0.69406800  0.24460800  1
  H  H14  1  0.22455900  0.88349500  0.33413200  1
  H  H15  1  0.18422800  0.78266600  0.33281000  1
  H  H16  1  0.73394300  0.12148500  0.57165600  1
  H  H17  1  0.83270400  0.10934800  0.65899600  1
  H  H18  1  0.84918500  0.24451900  0.79534800  1
  H  H19  1  0.89019900  0.24389400  0.69491800  1
  H  H20  1  0.77590400  0.33262900  0.88432500  1
  H  H21  1  0.81578400  0.33186200  0.78376600  1
  H  H22  1  0.26575100  0.42699100  0.88059700  1
  H  H23  1  0.16752600  0.33907000  0.89177900  1
  H  H24  1  0.15105500  0.20392100  0.75543200  1
  H  H25  1  0.10953100  0.30460200  0.75735100  1
  H  H26  1  0.22437800  0.11580000  0.66647300  1
  H  H27  1  0.18391600  0.21660400  0.66849200  1
  H  H28  1  0.73435000  0.07171700  0.37945200  1
  H  H29  1  0.83243300  0.15966400  0.39111600  1
  H  H30  1  0.84874700  0.29504600  0.25548700  1
  H  H31  1  0.89045500  0.19438300  0.25686000  1
  H  H32  1  0.77535800  0.38322200  0.16693700  1
  H  H33  1  0.81593300  0.28242900  0.16845300  1
  H  H34  1  0.26578300  0.37745200  0.07207200  1
  H  H35  1  0.16697300  0.38941000  0.15946800  1
  H  H36  1  0.15066800  0.25403200  0.29507700  1
  H  H37  1  0.10971400  0.25480200  0.19464400  1
  H  H38  1  0.22409800  0.16587600  0.38363600  1
  H  H39  1  0.18420700  0.16674600  0.28308100  1
  H  H40  1  0.26613900  0.87819400  0.57091600  1
  H  H41  1  0.16706600  0.89021900  0.65821800  1
  H  H42  1  0.15071900  0.75503500  0.79404100  1
  H  H43  1  0.11000500  0.75560900  0.69357900  1
  H  H44  1  0.22408700  0.66701200  0.88274700  1
  H  H45  1  0.18450600  0.66773000  0.78215600  1
  H  H46  1  0.73462800  0.57323900  0.87909900  1
  H  H47  1  0.83246600  0.66127300  0.89070000  1
  H  H48  1  0.84880400  0.79643800  0.75488100  1
  H  H49  1  0.89072600  0.69580500  0.75645300  1
  H  H50  1  0.77539400  0.88447000  0.66619400  1
  H  H51  1  0.81625400  0.78371400  0.66786500  1
  C  C52  1  0.50013200  0.90117500  0.59850600  1
  C  C53  1  0.50022400  0.90106300  0.40119700  1
  C  C54  1  0.49986300  0.09887800  0.40151800  1
  C  C55  1  0.49977500  0.09877400  0.59895800  1
  C  C56  1  0.49993300  0.40025900  0.09953100  1
  C  C57  1  0.49976400  0.59820800  0.09951600  1
  C  C58  1  0.50004900  0.59775800  0.90234000  1
  C  C59  1  0.50021400  0.39967900  0.90257200  1
  C  C60  1  0.59778000  0.68870600  0.18965200  1
  C  C61  1  0.36369400  0.66977200  0.17081800  1
  C  C62  1  0.32760000  0.72132000  0.22217000  1
  C  C63  1  0.43234300  0.75764700  0.25834400  1
  C  C64  1  0.40220800  0.81056500  0.31106100  1
  C  C65  1  0.63629400  0.82949800  0.32989400  1
  C  C66  1  0.67238800  0.77795000  0.27854200  1
  C  C67  1  0.56764600  0.74162400  0.24236900  1
  C  C68  1  0.49985000  0.65443600  0.15552600  1
  C  C69  1  0.50013900  0.84483400  0.34518600  1
  C  C70  1  0.59796100  0.30980200  0.81173700  1
  C  C71  1  0.36393200  0.32852100  0.83098100  1
  C  C72  1  0.32768500  0.27729100  0.77934400  1
  C  C73  1  0.43231900  0.24124100  0.74281000  1
  C  C74  1  0.40202800  0.18865000  0.68979200  1
  C  C75  1  0.63605700  0.16993100  0.67054800  1
  C  C76  1  0.67230400  0.22116200  0.72218500  1
  C  C77  1  0.56766900  0.25721300  0.75872000  1
  C  C78  1  0.50013200  0.34381300  0.84620300  1
  C  C79  1  0.49985600  0.15464000  0.65532700  1
  C  C80  1  0.59779000  0.31028700  0.18989200  1
  C  C81  1  0.36373800  0.32892400  0.17072000  1
  C  C82  1  0.32755400  0.27759500  0.22207500  1
  C  C83  1  0.43223300  0.24153700  0.25842700  1
  C  C84  1  0.40200600  0.18884900  0.31115600  1
  C  C85  1  0.63605800  0.17021300  0.33032900  1
  C  C86  1  0.67224200  0.22154200  0.27897400  1
  C  C87  1  0.56756300  0.25760000  0.24262200  1
  C  C88  1  0.49992000  0.34430400  0.15559800  1
  C  C89  1  0.49987600  0.15483300  0.34545100  1
  C  C90  1  0.40215600  0.69004300  0.81039900  1
  C  C91  1  0.63620100  0.67159500  0.82977300  1
  C  C92  1  0.67239700  0.72286500  0.77836200  1
  C  C93  1  0.56772800  0.75879300  0.74187500  1
  C  C94  1  0.59796700  0.81141500  0.68908300  1
  C  C95  1  0.36392200  0.82986400  0.66970900  1
  C  C96  1  0.32772600  0.77859300  0.72112000  1
  C  C97  1  0.43239500  0.74266500  0.75760700  1
  C  C98  1  0.50001700  0.65614600  0.84481900  1
  C  C99  1  0.50010600  0.84531200  0.65466300  1
  N  N100  1  0.74410000  0.86966300  0.36988600  1
  N  N101  1  0.81667500  0.76104700  0.26169200  1
  N  N102  1  0.74243100  0.67224500  0.17326500  1
  N  N103  1  0.25586900  0.62961200  0.13083800  1
  N  N104  1  0.18331000  0.73821300  0.23902500  1
  N  N105  1  0.25755900  0.82702900  0.32744800  1
  N  N106  1  0.74374300  0.13006800  0.63016800  1
  N  N107  1  0.81664100  0.23801200  0.73896500  1
  N  N108  1  0.74266000  0.32621400  0.82805000  1
  N  N109  1  0.25622600  0.36838000  0.87135000  1
  N  N110  1  0.18334500  0.26045000  0.76256000  1
  N  N111  1  0.25733000  0.17223600  0.67347900  1
  N  N112  1  0.74379300  0.13034400  0.37051400  1
  N  N113  1  0.81655800  0.23848600  0.26230100  1
  N  N114  1  0.74246900  0.32676800  0.17366100  1
  N  N115  1  0.25598300  0.36878200  0.13053900  1
  N  N116  1  0.18323500  0.26064700  0.23873700  1
  N  N117  1  0.25732900  0.17236800  0.32739100  1
  N  N118  1  0.25619600  0.86960100  0.62938700  1
  N  N119  1  0.18340600  0.76157700  0.73771200  1
  N  N120  1  0.25747400  0.67346400  0.82652400  1
  N  N121  1  0.74394600  0.63186100  0.87008400  1
  N  N122  1  0.81671900  0.73987000  0.76176600  1
  N  N123  1  0.74264700  0.82799700  0.67295700  1
  O  O124  1  0.36424200  0.92653000  0.57253900  1
  O  O125  1  0.63604700  0.92710400  0.57292400  1
  O  O126  1  0.63617100  0.92701700  0.42703500  1
  O  O127  1  0.36435500  0.92674300  0.42679300  1
  O  O128  1  0.63576200  0.07338800  0.42734900  1
  O  O129  1  0.36395300  0.07300400  0.42715300  1
  O  O130  1  0.36382900  0.07289200  0.57304900  1
  O  O131  1  0.63564500  0.07335400  0.57310200  1
  O  O132  1  0.63580300  0.42631000  0.07422800  1
  O  O133  1  0.36399800  0.42589200  0.07368500  1
  O  O134  1  0.36381700  0.57225400  0.07367800  1
  O  O135  1  0.63563400  0.57252800  0.07392000  1
  O  O136  1  0.36417000  0.57184400  0.92777900  1
  O  O137  1  0.63597900  0.57207100  0.92813100  1
  O  O138  1  0.63615900  0.42570200  0.92833800  1
  O  O139  1  0.36434300  0.42561900  0.92790800  1
