# generated using pymatgen
data_AlH3C24(Cl2O)6
_symmetry_space_group_name_H-M   'P 1'
_cell_length_a   4.31870000
_cell_length_b   28.80530000
_cell_length_c   28.80530000
_cell_angle_alpha   120.00000000
_cell_angle_beta   90.00000000
_cell_angle_gamma   90.00000000
_symmetry_Int_Tables_number   1
_chemical_formula_structural   AlH3C24(Cl2O)6
_chemical_formula_sum   'Al2 H6 C48 Cl24 O12'
_cell_volume   3103.33367219
_cell_formula_units_Z   2
loop_
 _symmetry_equiv_pos_site_id
 _symmetry_equiv_pos_as_xyz
  1  'x, y, z'
loop_
 _atom_site_type_symbol
 _atom_site_label
 _atom_site_symmetry_multiplicity
 _atom_site_fract_x
 _atom_site_fract_y
 _atom_site_fract_z
 _atom_site_occupancy
  Al  Al0  1  0.00000800  0.00000200  0.50000100  1
  Al  Al1  1  0.00000800  0.33333600  0.16666800  1
  H  H2  1  0.50000400  0.66347000  0.38461300  1
  H  H3  1  0.50000400  0.66987000  0.28203300  1
  H  H4  1  0.50000400  0.22114500  0.83653200  1
  H  H5  1  0.50000400  0.11216400  0.83013100  1
  H  H6  1  0.50000400  0.11538900  0.27885700  1
  H  H7  1  0.50000400  0.21796800  0.38783700  1
  C  C8  1  0.50000400  0.04466900  0.46307100  1
  C  C9  1  0.50000400  0.91840400  0.45533300  1
  C  C10  1  0.50000400  0.03693100  0.58159800  1
  C  C11  1  0.50000400  0.41493300  0.21133000  1
  C  C12  1  0.50000400  0.29640000  0.08507000  1
  C  C13  1  0.50000400  0.28867300  0.20360300  1
  C  C14  1  0.50000400  0.47564000  0.24455800  1
  C  C15  1  0.50000400  0.50715700  0.21976900  1
  C  C16  1  0.50000400  0.56323000  0.25040500  1
  C  C17  1  0.50000400  0.58942600  0.30692200  1
  C  C18  1  0.50000400  0.55783200  0.33156200  1
  C  C19  1  0.50000400  0.50181400  0.30092700  1
  C  C20  1  0.50000400  0.64895000  0.34210800  1
  C  C21  1  0.50000400  0.68438700  0.32453800  1
  C  C22  1  0.50000400  0.77551000  0.33509300  1
  C  C23  1  0.50000400  0.74391200  0.35973000  1
  C  C24  1  0.50000400  0.77010500  0.41624800  1
  C  C25  1  0.50000400  0.82617700  0.44688500  1
  C  C26  1  0.50000400  0.85769800  0.42210100  1
  C  C27  1  0.50000400  0.83152700  0.36573100  1
  C  C28  1  0.50000400  0.26892100  0.02436300  1
  C  C29  1  0.50000400  0.21261401  0.99284501  1
  C  C30  1  0.50000400  0.18717680  0.93677180  1
  C  C31  1  0.50000400  0.21749780  0.91057580  1
  C  C32  1  0.50000400  0.27373180  0.94216980  1
  C  C33  1  0.50000400  0.29911481  0.99818781  1
  C  C34  1  0.50000400  0.19315900  0.85105100  1
  C  C35  1  0.50000400  0.14015300  0.81561500  1
  C  C36  1  0.50000400  0.05958500  0.72449200  1
  C  C37  1  0.50000400  0.11582000  0.75609000  1
  C  C38  1  0.50000400  0.14614500  0.72989700  1
  C  C39  1  0.50000400  0.12070900  0.67382400  1
  C  C40  1  0.50000400  0.06440500  0.64230400  1
  C  C41  1  0.50000400  0.03420600  0.66847500  1
  C  C42  1  0.50000400  0.25544500  0.23108200  1
  C  C43  1  0.50000400  0.28023301  0.28738800  1
  C  C44  1  0.50000400  0.24959680  0.31282500  1
  C  C45  1  0.50000400  0.19307980  0.28250400  1
  C  C46  1  0.50000400  0.16843980  0.22627000  1
  C  C47  1  0.50000400  0.19907481  0.20088700  1
  C  C48  1  0.50000400  0.15789300  0.30684200  1
  C  C49  1  0.50000400  0.17546400  0.35984900  1
  C  C50  1  0.50000400  0.16490900  0.44041700  1
  C  C51  1  0.50000400  0.14027200  0.38418200  1
  C  C52  1  0.50000400  0.08375400  0.35385700  1
  C  C53  1  0.50000400  0.05311600  0.37929200  1
  C  C54  1  0.50000400  0.07790100  0.43559700  1
  C  C55  1  0.50000400  0.13427100  0.46579600  1
  Cl  Cl56  1  0.50000400  0.46415200  0.33376200  1
  Cl  Cl57  1  0.50000400  0.58829400  0.40190400  1
  Cl  Cl58  1  0.50000400  0.47615900  0.14938400  1
  Cl  Cl59  1  0.50000400  0.59908100  0.21570700  1
  Cl  Cl60  1  0.50000400  0.73425600  0.45094800  1
  Cl  Cl61  1  0.50000400  0.85717000  0.51727100  1
  Cl  Cl62  1  0.50000400  0.74505300  0.26475100  1
  Cl  Cl63  1  0.50000400  0.86919400  0.33290100  1
  Cl  Cl64  1  0.50000400  0.36961300  0.03585100  1
  Cl  Cl65  1  0.50000400  0.31361170  0.91170770  1
  Cl  Cl66  1  0.50000400  0.17322800  0.02384400  1
  Cl  Cl67  1  0.50000400  0.11662740  0.90092040  1
  Cl  Cl68  1  0.50000400  0.21669300  0.76574500  1
  Cl  Cl69  1  0.50000400  0.16010300  0.64283200  1
  Cl  Cl70  1  0.50000400  0.01970000  0.75494900  1
  Cl  Cl71  1  0.50000400  0.96370900  0.63080800  1
  Cl  Cl72  1  0.50000400  0.16624100  0.13039000  1
  Cl  Cl73  1  0.50000400  0.09809770  0.18639000  1
  Cl  Cl74  1  0.50000400  0.35061900  0.32677500  1
  Cl  Cl75  1  0.50000400  0.28429440  0.38337400  1
  Cl  Cl76  1  0.50000400  0.04905300  0.28330800  1
  Cl  Cl77  1  0.50000400  0.98273100  0.33989900  1
  Cl  Cl78  1  0.50000400  0.23525100  0.48030200  1
  Cl  Cl79  1  0.50000400  0.16710100  0.53629300  1
  O  O80  1  0.72331200  0.00226400  0.55551700  1
  O  O81  1  0.72331200  0.05325500  0.49773800  1
  O  O82  1  0.72331200  0.94448500  0.44674700  1
  O  O83  1  0.27669600  0.04929400  0.55839900  1
  O  O84  1  0.27669600  0.94160200  0.49089500  1
  O  O85  1  0.27669600  0.00910600  0.45070700  1
  O  O86  1  0.72331200  0.28008500  0.16893600  1
  O  O87  1  0.72331200  0.38885500  0.21991900  1
  O  O88  1  0.72331200  0.33106800  0.11114900  1
  O  O89  1  0.27669600  0.32423500  0.21596400  1
  O  O90  1  0.27669600  0.28403900  0.10827100  1
  O  O91  1  0.27669600  0.39173200  0.17576800  1
