# generated using pymatgen
data_CdH14(C5N2)2
_symmetry_space_group_name_H-M   'P 1'
_cell_length_a   26.74907387
_cell_length_b   26.74907387
_cell_length_c   26.74907387
_cell_angle_alpha   109.47122063
_cell_angle_beta   109.47122063
_cell_angle_gamma   109.47122063
_symmetry_Int_Tables_number   1
_chemical_formula_structural   CdH14(C5N2)2
_chemical_formula_sum   'Cd24 H336 C240 N96'
_cell_volume   14733.44681012
_cell_formula_units_Z   24
loop_
 _symmetry_equiv_pos_site_id
 _symmetry_equiv_pos_as_xyz
  1  'x, y, z'
loop_
 _atom_site_type_symbol
 _atom_site_label
 _atom_site_symmetry_multiplicity
 _atom_site_fract_x
 _atom_site_fract_y
 _atom_site_fract_z
 _atom_site_occupancy
  C  C144  1  0.56988000  1.00000000  0.20902000  1.0
  C  C145  1  0.43012000  0.63914000  0.43012000  1.0
  C  C146  1  0.20902000  0.00000000  0.56988000  1.0
  C  C147  1  0.79098000  0.36086000  0.79098000  1.0
  C  C148  1  0.36086000  0.79098000  0.79098000  1.0
  C  C149  1  1.00000000  0.56988000  0.20902000  1.0
  C  C150  1  0.63914000  0.43012000  0.43012000  1.0
  C  C151  1  0.00000000  0.20902000  0.56988000  1.0
  C  C152  1  0.56988000  0.20902000  1.00000000  1.0
  C  C153  1  0.79098000  0.79098000  0.36086000  1.0
  C  C154  1  0.20902000  0.56988000  0.00000000  1.0
  C  C155  1  0.43012000  0.43012000  0.63914000  1.0
  C  C156  1  0.56988000  0.56988000  0.36086000  1.0
  C  C157  1  0.43012000  0.79098000  1.00000000  1.0
  C  C158  1  0.20902000  0.20902000  0.63914000  1.0
  C  C159  1  0.79098000  0.43012000  0.00000000  1.0
  C  C160  1  0.36086000  0.56988000  0.56988000  1.0
  C  C161  1  0.00000000  0.43012000  0.79098000  1.0
  C  C162  1  0.63914000  0.20902000  0.20902000  1.0
  C  C163  1  0.00000000  0.79098000  0.43012000  1.0
  C  C164  1  0.56988000  0.36086000  0.56988000  1.0
  C  C165  1  0.79098000  1.00000000  0.43012000  1.0
  C  C166  1  0.20902000  0.63914000  0.20902000  1.0
  C  C167  1  0.43012000  0.00000000  0.79098000  1.0
  C  C192  1  0.64654000  0.25135000  0.39509000  1.0
  C  C193  1  0.35346000  0.74855000  0.60481000  1.0
  C  C194  1  0.14374000  0.74862500  0.39516500  1.0
  C  C195  1  0.85626000  0.25142500  0.60488500  1.0
  C  C196  1  0.25145000  0.60491000  0.85626000  1.0
  C  C197  1  0.74865000  0.39519000  0.14374000  1.0
  C  C198  1  0.74857500  0.60483500  0.35346000  1.0
  C  C199  1  0.25137500  0.39511500  0.64654000  1.0
  C  C200  1  0.39519000  0.14374000  0.74865000  1.0
  C  C201  1  0.60491000  0.85626000  0.25145000  1.0
  C  C202  1  0.39511500  0.64654000  0.25137500  1.0
  C  C203  1  0.60483500  0.35346000  0.74857500  1.0
  C  C204  1  0.64654000  0.39516500  0.25142500  1.0
  C  C205  1  0.35346000  0.60488500  0.74862500  1.0
  C  C206  1  0.14374000  0.39509000  0.74855000  1.0
  C  C207  1  0.85626000  0.60481000  0.25135000  1.0
  C  C208  1  0.25145000  0.64654000  0.39519000  1.0
  C  C209  1  0.74865000  0.35346000  0.60491000  1.0
  C  C210  1  0.74857500  0.14374000  0.39511500  1.0
  C  C211  1  0.25137500  0.85626000  0.60483500  1.0
  C  C212  1  0.39519000  0.25145000  0.64654000  1.0
  C  C213  1  0.60491000  0.74865000  0.35346000  1.0
  C  C214  1  0.39511500  0.74857500  0.14374000  1.0
  C  C215  1  0.60483500  0.25137500  0.85626000  1.0
  C  C336  1  0.56199000  0.17183000  0.34534000  1.0
  C  C337  1  0.43801000  0.78335000  0.60984000  1.0
  C  C338  1  0.17351000  0.82817000  0.39016000  1.0
  C  C339  1  0.82649000  0.21665000  0.65466000  1.0
  C  C340  1  0.21665000  0.65466000  0.82649000  1.0
  C  C341  1  0.82817000  0.39016000  0.17351000  1.0
  C  C342  1  0.78335000  0.60984000  0.43801000  1.0
  C  C343  1  0.17183000  0.34534000  0.56199000  1.0
  C  C344  1  0.39016000  0.17351000  0.82817000  1.0
  C  C345  1  0.65466000  0.82649000  0.21665000  1.0
  C  C346  1  0.34534000  0.56199000  0.17183000  1.0
  C  C347  1  0.60984000  0.43801000  0.78335000  1.0
  C  C348  1  0.56199000  0.39016000  0.21665000  1.0
  C  C349  1  0.43801000  0.65466000  0.82817000  1.0
  C  C350  1  0.17351000  0.34534000  0.78335000  1.0
  C  C351  1  0.82649000  0.60984000  0.17183000  1.0
  C  C352  1  0.21665000  0.56199000  0.39016000  1.0
  C  C353  1  0.82817000  0.43801000  0.65466000  1.0
  C  C354  1  0.78335000  0.17351000  0.34534000  1.0
  C  C355  1  0.17183000  0.82649000  0.60984000  1.0
  C  C356  1  0.39016000  0.21665000  0.56199000  1.0
  C  C357  1  0.65466000  0.82817000  0.43801000  1.0
  C  C358  1  0.34534000  0.78335000  0.17351000  1.0
  C  C359  1  0.60984000  0.17183000  0.82649000  1.0
  C  C384  1  0.43801000  0.82817000  0.65466000  1.0
  C  C385  1  0.56199000  0.21665000  0.39016000  1.0
  C  C386  1  0.82649000  0.17183000  0.60984000  1.0
  C  C387  1  0.17351000  0.78335000  0.34534000  1.0
  C  C388  1  0.78335000  0.34534000  0.17351000  1.0
  C  C389  1  0.17183000  0.60984000  0.82649000  1.0
  C  C390  1  0.21665000  0.39016000  0.56199000  1.0
  C  C391  1  0.82817000  0.65466000  0.43801000  1.0
  C  C392  1  0.60984000  0.82649000  0.17183000  1.0
  C  C393  1  0.34534000  0.17351000  0.78335000  1.0
  C  C394  1  0.65466000  0.43801000  0.82817000  1.0
  C  C395  1  0.39016000  0.56199000  0.21665000  1.0
  C  C396  1  0.43801000  0.60984000  0.78335000  1.0
  C  C397  1  0.56199000  0.34534000  0.17183000  1.0
  C  C398  1  0.82649000  0.65466000  0.21665000  1.0
  C  C399  1  0.17351000  0.39016000  0.82817000  1.0
  C  C400  1  0.78335000  0.43801000  0.60984000  1.0
  C  C401  1  0.17183000  0.56199000  0.34534000  1.0
  C  C402  1  0.21665000  0.82649000  0.65466000  1.0
  C  C403  1  0.82817000  0.17351000  0.39016000  1.0
  C  C404  1  0.60984000  0.78335000  0.43801000  1.0
  C  C405  1  0.34534000  0.17183000  0.56199000  1.0
  C  C406  1  0.65466000  0.21665000  0.82649000  1.0
  C  C407  1  0.39016000  0.82817000  0.17351000  1.0
  C  C528  1  0.68945000  0.30091000  0.38836000  1.0
  C  C529  1  0.31055000  0.69891000  0.61146000  1.0
  C  C530  1  0.08745000  0.69904500  0.38849500  1.0
  C  C531  1  0.91255000  0.30104500  0.61159500  1.0
  C  C532  1  0.30109000  0.61164000  0.91255000  1.0
  C  C533  1  0.69909000  0.38854000  0.08745000  1.0
  C  C534  1  0.69895500  0.61150500  0.31055000  1.0
  C  C535  1  0.30095500  0.38840500  0.68945000  1.0
  C  C536  1  0.38854000  0.08745000  0.69909000  1.0
  C  C537  1  0.61164000  0.91255000  0.30109000  1.0
  C  C538  1  0.38840500  0.68945000  0.30095500  1.0
  C  C539  1  0.61150500  0.31055000  0.69895500  1.0
  C  C540  1  0.68945000  0.38849500  0.30104500  1.0
  C  C541  1  0.31055000  0.61159500  0.69904500  1.0
  C  C542  1  0.08745000  0.38836000  0.69891000  1.0
  C  C543  1  0.91255000  0.61146000  0.30091000  1.0
  C  C544  1  0.30109000  0.68945000  0.38854000  1.0
  C  C545  1  0.69909000  0.31055000  0.61164000  1.0
  C  C546  1  0.69895500  0.08745000  0.38840500  1.0
  C  C547  1  0.30095500  0.91255000  0.61150500  1.0
  C  C548  1  0.38854000  0.30109000  0.68945000  1.0
  C  C549  1  0.61164000  0.69909000  0.31055000  1.0
  C  C550  1  0.38840500  0.69895500  0.08745000  1.0
  C  C551  1  0.61150500  0.30095500  0.91255000  1.0
  C  C672  1  0.75351500  0.31848900  0.43500400  1.0
  C  C673  1  0.24648500  0.68148900  0.56497400  1.0
  C  C674  1  0.11651500  0.68150550  0.43502050  1.0
  C  C675  1  0.88348500  0.31850550  0.56499050  1.0
  C  C676  1  0.31851100  0.56499600  0.88348500  1.0
  C  C677  1  0.68151100  0.43502600  0.11651500  1.0
  C  C678  1  0.68149450  0.56497950  0.24648500  1.0
  C  C679  1  0.31849450  0.43500950  0.75351500  1.0
  C  C680  1  0.43502600  0.11651500  0.68151100  1.0
  C  C681  1  0.56499600  0.88348500  0.31851100  1.0
  C  C682  1  0.43500950  0.75351500  0.31849450  1.0
  C  C683  1  0.56497950  0.24648500  0.68149450  1.0
  C  C684  1  0.75351500  0.43502050  0.31850550  1.0
  C  C685  1  0.24648500  0.56499050  0.68150550  1.0
  C  C686  1  0.11651500  0.43500400  0.68148900  1.0
  C  C687  1  0.88348500  0.56497400  0.31848900  1.0
  C  C688  1  0.31851100  0.75351500  0.43502600  1.0
  C  C689  1  0.68151100  0.24648500  0.56499600  1.0
  C  C690  1  0.68149450  0.11651500  0.43500950  1.0
  C  C691  1  0.31849450  0.88348500  0.56497950  1.0
  C  C692  1  0.43502600  0.31851100  0.75351500  1.0
  C  C693  1  0.56499600  0.68151100  0.24648500  1.0
  C  C694  1  0.43500950  0.68149450  0.11651500  1.0
  C  C695  1  0.56497950  0.31849450  0.88348500  1.0
  C  C864  1  0.53975000  0.03180000  0.26919000  1.0
  C  C865  1  0.46025000  0.72944000  0.49205000  1.0
  C  C866  1  0.23739000  0.96820000  0.50795000  1.0
  C  C867  1  0.76261000  0.27056000  0.73081000  1.0
  C  C868  1  0.27056000  0.73081000  0.76261000  1.0
  C  C869  1  0.96820000  0.50795000  0.23739000  1.0
  C  C870  1  0.72944000  0.49205000  0.46025000  1.0
  C  C871  1  0.03180000  0.26919000  0.53975000  1.0
  C  C872  1  0.50795000  0.23739000  0.96820000  1.0
  C  C873  1  0.73081000  0.76261000  0.27056000  1.0
  C  C874  1  0.26919000  0.53975000  0.03180000  1.0
  C  C875  1  0.49205000  0.46025000  0.72944000  1.0
  C  C876  1  0.53975000  0.50795000  0.27056000  1.0
  C  C877  1  0.46025000  0.73081000  0.96820000  1.0
  C  C878  1  0.23739000  0.26919000  0.72944000  1.0
  C  C879  1  0.76261000  0.49205000  0.03180000  1.0
  C  C880  1  0.27056000  0.53975000  0.50795000  1.0
  C  C881  1  0.96820000  0.46025000  0.73081000  1.0
  C  C882  1  0.72944000  0.23739000  0.26919000  1.0
  C  C883  1  0.03180000  0.76261000  0.49205000  1.0
  C  C884  1  0.50795000  0.27056000  0.53975000  1.0
  C  C885  1  0.73081000  0.96820000  0.46025000  1.0
  C  C886  1  0.26919000  0.72944000  0.23739000  1.0
  C  C887  1  0.49205000  0.03180000  0.76261000  1.0
  C  C912  1  0.46025000  0.96820000  0.73081000  1.0
  C  C913  1  0.53975000  0.27056000  0.50795000  1.0
  C  C914  1  0.76261000  0.03180000  0.49205000  1.0
  C  C915  1  0.23739000  0.72944000  0.26919000  1.0
  C  C916  1  0.72944000  0.26919000  0.23739000  1.0
  C  C917  1  0.03180000  0.49205000  0.76261000  1.0
  C  C918  1  0.27056000  0.50795000  0.53975000  1.0
  C  C919  1  0.96820000  0.73081000  0.46025000  1.0
  C  C920  1  0.49205000  0.76261000  0.03180000  1.0
  C  C921  1  0.26919000  0.23739000  0.72944000  1.0
  C  C922  1  0.73081000  0.46025000  0.96820000  1.0
  C  C923  1  0.50795000  0.53975000  0.27056000  1.0
  C  C924  1  0.46025000  0.49205000  0.72944000  1.0
  C  C925  1  0.53975000  0.26919000  0.03180000  1.0
  C  C926  1  0.76261000  0.73081000  0.27056000  1.0
  C  C927  1  0.23739000  0.50795000  0.96820000  1.0
  C  C928  1  0.72944000  0.46025000  0.49205000  1.0
  C  C929  1  0.03180000  0.53975000  0.26919000  1.0
  C  C930  1  0.27056000  0.76261000  0.73081000  1.0
  C  C931  1  0.96820000  0.23739000  0.50795000  1.0
  C  C932  1  0.49205000  0.72944000  0.46025000  1.0
  C  C933  1  0.26919000  0.03180000  0.53975000  1.0
  C  C934  1  0.73081000  0.27056000  0.76261000  1.0
  C  C935  1  0.50795000  0.96820000  0.23739000  1.0
  C  C1056  1  0.58716300  1.00000000  0.15966300  1.0
  C  C1057  1  0.41283700  0.57250000  0.41283700  1.0
  C  C1058  1  0.15966300  0.00000000  0.58716300  1.0
  C  C1059  1  0.84033700  0.42750000  0.84033700  1.0
  C  C1060  1  0.42750000  0.84033700  0.84033700  1.0
  C  C1061  1  1.00000000  0.58716300  0.15966300  1.0
  C  C1062  1  0.57250000  0.41283700  0.41283700  1.0
  C  C1063  1  0.00000000  0.15966300  0.58716300  1.0
  C  C1064  1  0.58716300  0.15966300  1.00000000  1.0
  C  C1065  1  0.84033700  0.84033700  0.42750000  1.0
  C  C1066  1  0.15966300  0.58716300  0.00000000  1.0
  C  C1067  1  0.41283700  0.41283700  0.57250000  1.0
  C  C1068  1  0.58716300  0.58716300  0.42750000  1.0
  C  C1069  1  0.41283700  0.84033700  1.00000000  1.0
  C  C1070  1  0.15966300  0.15966300  0.57250000  1.0
  C  C1071  1  0.84033700  0.41283700  1.00000000  1.0
  C  C1072  1  0.42750000  0.58716300  0.58716300  1.0
  C  C1073  1  0.00000000  0.41283700  0.84033700  1.0
  C  C1074  1  0.57250000  0.15966300  0.15966300  1.0
  C  C1075  1  0.00000000  0.84033700  0.41283700  1.0
  C  C1076  1  0.58716300  0.42750000  0.58716300  1.0
  C  C1077  1  0.84033700  1.00000000  0.41283700  1.0
  C  C1078  1  0.15966300  0.57250000  0.15966300  1.0
  C  C1079  1  0.41283700  1.00000000  0.84033700  1.0
  C  C1200  1  0.64429700  1.00000000  0.19873700  1.0
  C  C1201  1  0.35570300  0.55444000  0.35570300  1.0
  C  C1202  1  0.19873700  0.00000000  0.64429700  1.0
  C  C1203  1  0.80126300  0.44556000  0.80126300  1.0
  C  C1204  1  0.44556000  0.80126300  0.80126300  1.0
  C  C1205  1  0.00000000  0.64429700  0.19873700  1.0
  C  C1206  1  0.55444000  0.35570300  0.35570300  1.0
  C  C1207  1  0.00000000  0.19873700  0.64429700  1.0
  C  C1208  1  0.64429700  0.19873700  1.00000000  1.0
  C  C1209  1  0.80126300  0.80126300  0.44556000  1.0
  C  C1210  1  0.19873700  0.64429700  0.00000000  1.0
  C  C1211  1  0.35570300  0.35570300  0.55444000  1.0
  C  C1212  1  0.64429700  0.64429700  0.44556000  1.0
  C  C1213  1  0.35570300  0.80126300  0.00000000  1.0
  C  C1214  1  0.19873700  0.19873700  0.55444000  1.0
  C  C1215  1  0.80126300  0.35570300  1.00000000  1.0
  C  C1216  1  0.44556000  0.64429700  0.64429700  1.0
  C  C1217  1  0.00000000  0.35570300  0.80126300  1.0
  C  C1218  1  0.55444000  0.19873700  0.19873700  1.0
  C  C1219  1  0.00000000  0.80126300  0.35570300  1.0
  C  C1220  1  0.64429700  0.44556000  0.64429700  1.0
  C  C1221  1  0.80126300  1.00000000  0.35570300  1.0
  C  C1222  1  0.19873700  0.55444000  0.19873700  1.0
  C  C1223  1  0.35570300  0.00000000  0.80126300  1.0
  Cd  Cd0  1  0.64611000  0.14611000  0.29222000  1.0
  Cd  Cd1  1  0.35389000  0.64611000  0.50000000  1.0
  Cd  Cd2  1  0.14611000  0.85389000  0.50000000  1.0
  Cd  Cd3  1  0.85389000  0.35389000  0.70778000  1.0
  Cd  Cd4  1  0.35389000  0.70778000  0.85389000  1.0
  Cd  Cd5  1  0.85389000  0.50000000  0.14611000  1.0
  Cd  Cd6  1  0.64611000  0.50000000  0.35389000  1.0
  Cd  Cd7  1  0.14611000  0.29222000  0.64611000  1.0
  Cd  Cd8  1  0.50000000  0.14611000  0.85389000  1.0
  Cd  Cd9  1  0.70778000  0.85389000  0.35389000  1.0
  Cd  Cd10  1  0.29222000  0.64611000  0.14611000  1.0
  Cd  Cd11  1  0.50000000  0.35389000  0.64611000  1.0
  Cd  Cd24  1  0.35389000  0.85389000  0.70778000  1.0
  Cd  Cd25  1  0.64611000  0.35389000  0.50000000  1.0
  Cd  Cd26  1  0.85389000  0.14611000  0.50000000  1.0
  Cd  Cd27  1  0.14611000  0.64611000  0.29222000  1.0
  Cd  Cd28  1  0.64611000  0.29222000  0.14611000  1.0
  Cd  Cd29  1  0.14611000  0.50000000  0.85389000  1.0
  Cd  Cd30  1  0.35389000  0.50000000  0.64611000  1.0
  Cd  Cd31  1  0.85389000  0.70778000  0.35389000  1.0
  Cd  Cd32  1  0.50000000  0.85389000  0.14611000  1.0
  Cd  Cd33  1  0.29222000  0.14611000  0.64611000  1.0
  Cd  Cd34  1  0.70778000  0.35389000  0.85389000  1.0
  Cd  Cd35  1  0.50000000  0.64611000  0.35389000  1.0
  H  H432  1  0.52910000  0.13250000  0.31640000  1.0
  H  H433  1  0.47090000  0.78730000  0.60340000  1.0
  H  H434  1  0.18390000  0.86750000  0.39660000  1.0
  H  H435  1  0.81610000  0.21270000  0.68360000  1.0
  H  H436  1  0.21270000  0.68360000  0.81610000  1.0
  H  H437  1  0.86750000  0.39660000  0.18390000  1.0
  H  H438  1  0.78730000  0.60340000  0.47090000  1.0
  H  H439  1  0.13250000  0.31640000  0.52910000  1.0
  H  H440  1  0.39660000  0.18390000  0.86750000  1.0
  H  H441  1  0.68360000  0.81610000  0.21270000  1.0
  H  H442  1  0.31640000  0.52910000  0.13250000  1.0
  H  H443  1  0.60340000  0.47090000  0.78730000  1.0
  H  H444  1  0.52910000  0.39660000  0.21270000  1.0
  H  H445  1  0.47090000  0.68360000  0.86750000  1.0
  H  H446  1  0.18390000  0.31640000  0.78730000  1.0
  H  H447  1  0.81610000  0.60340000  0.13250000  1.0
  H  H448  1  0.21270000  0.52910000  0.39660000  1.0
  H  H449  1  0.86750000  0.47090000  0.68360000  1.0
  H  H450  1  0.78730000  0.18390000  0.31640000  1.0
  H  H451  1  0.13250000  0.81610000  0.60340000  1.0
  H  H452  1  0.39660000  0.21270000  0.52910000  1.0
  H  H453  1  0.68360000  0.86750000  0.47090000  1.0
  H  H454  1  0.31640000  0.78730000  0.18390000  1.0
  H  H455  1  0.60340000  0.13250000  0.81610000  1.0
  H  H480  1  0.47090000  0.86750000  0.68360000  1.0
  H  H481  1  0.52910000  0.21270000  0.39660000  1.0
  H  H482  1  0.81610000  0.13250000  0.60340000  1.0
  H  H483  1  0.18390000  0.78730000  0.31640000  1.0
  H  H484  1  0.78730000  0.31640000  0.18390000  1.0
  H  H485  1  0.13250000  0.60340000  0.81610000  1.0
  H  H486  1  0.21270000  0.39660000  0.52910000  1.0
  H  H487  1  0.86750000  0.68360000  0.47090000  1.0
  H  H488  1  0.60340000  0.81610000  0.13250000  1.0
  H  H489  1  0.31640000  0.18390000  0.78730000  1.0
  H  H490  1  0.68360000  0.47090000  0.86750000  1.0
  H  H491  1  0.39660000  0.52910000  0.21270000  1.0
  H  H492  1  0.47090000  0.60340000  0.78730000  1.0
  H  H493  1  0.52910000  0.31640000  0.13250000  1.0
  H  H494  1  0.81610000  0.68360000  0.21270000  1.0
  H  H495  1  0.18390000  0.39660000  0.86750000  1.0
  H  H496  1  0.78730000  0.47090000  0.60340000  1.0
  H  H497  1  0.13250000  0.52910000  0.31640000  1.0
  H  H498  1  0.21270000  0.81610000  0.68360000  1.0
  H  H499  1  0.86750000  0.18390000  0.39660000  1.0
  H  H500  1  0.60340000  0.78730000  0.47090000  1.0
  H  H501  1  0.31640000  0.13250000  0.52910000  1.0
  H  H502  1  0.68360000  0.21270000  0.81610000  1.0
  H  H503  1  0.39660000  0.86750000  0.18390000  1.0
  H  H576  1  0.68300000  0.28470000  0.34710000  1.0
  H  H577  1  0.31700000  0.66410000  0.60170000  1.0
  H  H578  1  0.06240000  0.71530000  0.39830000  1.0
  H  H579  1  0.93760000  0.33590000  0.65290000  1.0
  H  H580  1  0.33590000  0.65290000  0.93760000  1.0
  H  H581  1  0.71530000  0.39830000  0.06240000  1.0
  H  H582  1  0.66410000  0.60170000  0.31700000  1.0
  H  H583  1  0.28470000  0.34710000  0.68300000  1.0
  H  H584  1  0.39830000  0.06240000  0.71530000  1.0
  H  H585  1  0.65290000  0.93760000  0.33590000  1.0
  H  H586  1  0.34710000  0.68300000  0.28470000  1.0
  H  H587  1  0.60170000  0.31700000  0.66410000  1.0
  H  H588  1  0.68300000  0.39830000  0.33590000  1.0
  H  H589  1  0.31700000  0.65290000  0.71530000  1.0
  H  H590  1  0.06240000  0.34710000  0.66410000  1.0
  H  H591  1  0.93760000  0.60170000  0.28470000  1.0
  H  H592  1  0.33590000  0.68300000  0.39830000  1.0
  H  H593  1  0.71530000  0.31700000  0.65290000  1.0
  H  H594  1  0.66410000  0.06240000  0.34710000  1.0
  H  H595  1  0.28470000  0.93760000  0.60170000  1.0
  H  H596  1  0.39830000  0.33590000  0.68300000  1.0
  H  H597  1  0.65290000  0.71530000  0.31700000  1.0
  H  H598  1  0.34710000  0.66410000  0.06240000  1.0
  H  H599  1  0.60170000  0.28470000  0.93760000  1.0
  H  H624  1  0.31700000  0.71530000  0.65290000  1.0
  H  H625  1  0.68300000  0.33590000  0.39830000  1.0
  H  H626  1  0.93760000  0.28470000  0.60170000  1.0
  H  H627  1  0.06240000  0.66410000  0.34710000  1.0
  H  H628  1  0.66410000  0.34710000  0.06240000  1.0
  H  H629  1  0.28470000  0.60170000  0.93760000  1.0
  H  H630  1  0.33590000  0.39830000  0.68300000  1.0
  H  H631  1  0.71530000  0.65290000  0.31700000  1.0
  H  H632  1  0.60170000  0.93760000  0.28470000  1.0
  H  H633  1  0.34710000  0.06240000  0.66410000  1.0
  H  H634  1  0.65290000  0.31700000  0.71530000  1.0
  H  H635  1  0.39830000  0.68300000  0.33590000  1.0
  H  H636  1  0.31700000  0.60170000  0.66410000  1.0
  H  H637  1  0.68300000  0.34710000  0.28470000  1.0
  H  H638  1  0.93760000  0.65290000  0.33590000  1.0
  H  H639  1  0.06240000  0.39830000  0.71530000  1.0
  H  H640  1  0.66410000  0.31700000  0.60170000  1.0
  H  H641  1  0.28470000  0.68300000  0.34710000  1.0
  H  H642  1  0.33590000  0.93760000  0.65290000  1.0
  H  H643  1  0.71530000  0.06240000  0.39830000  1.0
  H  H644  1  0.60170000  0.66410000  0.31700000  1.0
  H  H645  1  0.34710000  0.28470000  0.68300000  1.0
  H  H646  1  0.65290000  0.33590000  0.93760000  1.0
  H  H647  1  0.39830000  0.71530000  0.06240000  1.0
  H  H720  1  0.78400000  0.34960000  0.43440000  1.0
  H  H721  1  0.21600000  0.65040000  0.56560000  1.0
  H  H722  1  0.08480000  0.65040000  0.43440000  1.0
  H  H723  1  0.91520000  0.34960000  0.56560000  1.0
  H  H724  1  0.34960000  0.56560000  0.91520000  1.0
  H  H725  1  0.65040000  0.43440000  0.08480000  1.0
  H  H726  1  0.65040000  0.56560000  0.21600000  1.0
  H  H727  1  0.34960000  0.43440000  0.78400000  1.0
  H  H728  1  0.43440000  0.08480000  0.65040000  1.0
  H  H729  1  0.56560000  0.91520000  0.34960000  1.0
  H  H730  1  0.43440000  0.78400000  0.34960000  1.0
  H  H731  1  0.56560000  0.21600000  0.65040000  1.0
  H  H732  1  0.78400000  0.43440000  0.34960000  1.0
  H  H733  1  0.21600000  0.56560000  0.65040000  1.0
  H  H734  1  0.08480000  0.43440000  0.65040000  1.0
  H  H735  1  0.91520000  0.56560000  0.34960000  1.0
  H  H736  1  0.34960000  0.78400000  0.43440000  1.0
  H  H737  1  0.65040000  0.21600000  0.56560000  1.0
  H  H738  1  0.65040000  0.08480000  0.43440000  1.0
  H  H739  1  0.34960000  0.91520000  0.56560000  1.0
  H  H740  1  0.43440000  0.34960000  0.78400000  1.0
  H  H741  1  0.56560000  0.65040000  0.21600000  1.0
  H  H742  1  0.43440000  0.65040000  0.08480000  1.0
  H  H743  1  0.56560000  0.34960000  0.91520000  1.0
  H  H768  1  0.75830000  0.28300000  0.42450000  1.0
  H  H769  1  0.24170000  0.66620000  0.52470000  1.0
  H  H770  1  0.14150000  0.71700000  0.47530000  1.0
  H  H771  1  0.85850000  0.33380000  0.57550000  1.0
  H  H772  1  0.33380000  0.57550000  0.85850000  1.0
  H  H773  1  0.71700000  0.47530000  0.14150000  1.0
  H  H774  1  0.66620000  0.52470000  0.24170000  1.0
  H  H775  1  0.28300000  0.42450000  0.75830000  1.0
  H  H776  1  0.47530000  0.14150000  0.71700000  1.0
  H  H777  1  0.57550000  0.85850000  0.33380000  1.0
  H  H778  1  0.42450000  0.75830000  0.28300000  1.0
  H  H779  1  0.52470000  0.24170000  0.66620000  1.0
  H  H780  1  0.75830000  0.47530000  0.33380000  1.0
  H  H781  1  0.24170000  0.57550000  0.71700000  1.0
  H  H782  1  0.14150000  0.42450000  0.66620000  1.0
  H  H783  1  0.85850000  0.52470000  0.28300000  1.0
  H  H784  1  0.33380000  0.75830000  0.47530000  1.0
  H  H785  1  0.71700000  0.24170000  0.57550000  1.0
  H  H786  1  0.66620000  0.14150000  0.42450000  1.0
  H  H787  1  0.28300000  0.85850000  0.52470000  1.0
  H  H788  1  0.47530000  0.33380000  0.75830000  1.0
  H  H789  1  0.57550000  0.71700000  0.24170000  1.0
  H  H790  1  0.42450000  0.66620000  0.14150000  1.0
  H  H791  1  0.52470000  0.28300000  0.85850000  1.0
  H  H816  1  0.24170000  0.71700000  0.57550000  1.0
  H  H817  1  0.75830000  0.33380000  0.47530000  1.0
  H  H818  1  0.85850000  0.28300000  0.52470000  1.0
  H  H819  1  0.14150000  0.66620000  0.42450000  1.0
  H  H820  1  0.66620000  0.42450000  0.14150000  1.0
  H  H821  1  0.28300000  0.52470000  0.85850000  1.0
  H  H822  1  0.33380000  0.47530000  0.75830000  1.0
  H  H823  1  0.71700000  0.57550000  0.24170000  1.0
  H  H824  1  0.52470000  0.85850000  0.28300000  1.0
  H  H825  1  0.42450000  0.14150000  0.66620000  1.0
  H  H826  1  0.57550000  0.24170000  0.71700000  1.0
  H  H827  1  0.47530000  0.75830000  0.33380000  1.0
  H  H828  1  0.24170000  0.52470000  0.66620000  1.0
  H  H829  1  0.75830000  0.42450000  0.28300000  1.0
  H  H830  1  0.85850000  0.57550000  0.33380000  1.0
  H  H831  1  0.14150000  0.47530000  0.71700000  1.0
  H  H832  1  0.66620000  0.24170000  0.52470000  1.0
  H  H833  1  0.28300000  0.75830000  0.42450000  1.0
  H  H834  1  0.33380000  0.85850000  0.57550000  1.0
  H  H835  1  0.71700000  0.14150000  0.47530000  1.0
  H  H836  1  0.52470000  0.66620000  0.24170000  1.0
  H  H837  1  0.42450000  0.28300000  0.75830000  1.0
  H  H838  1  0.57550000  0.33380000  0.85850000  1.0
  H  H839  1  0.47530000  0.71700000  0.14150000  1.0
  H  H960  1  0.53970000  0.05710000  0.30300000  1.0
  H  H961  1  0.46030000  0.76330000  0.51740000  1.0
  H  H962  1  0.24590000  0.94290000  0.48260000  1.0
  H  H963  1  0.75410000  0.23670000  0.69700000  1.0
  H  H964  1  0.23670000  0.69700000  0.75410000  1.0
  H  H965  1  0.94290000  0.48260000  0.24590000  1.0
  H  H966  1  0.76330000  0.51740000  0.46030000  1.0
  H  H967  1  0.05710000  0.30300000  0.53970000  1.0
  H  H968  1  0.48260000  0.24590000  0.94290000  1.0
  H  H969  1  0.69700000  0.75410000  0.23670000  1.0
  H  H970  1  0.30300000  0.53970000  0.05710000  1.0
  H  H971  1  0.51740000  0.46030000  0.76330000  1.0
  H  H972  1  0.53970000  0.48260000  0.23670000  1.0
  H  H973  1  0.46030000  0.69700000  0.94290000  1.0
  H  H974  1  0.24590000  0.30300000  0.76330000  1.0
  H  H975  1  0.75410000  0.51740000  0.05710000  1.0
  H  H976  1  0.23670000  0.53970000  0.48260000  1.0
  H  H977  1  0.94290000  0.46030000  0.69700000  1.0
  H  H978  1  0.76330000  0.24590000  0.30300000  1.0
  H  H979  1  0.05710000  0.75410000  0.51740000  1.0
  H  H980  1  0.48260000  0.23670000  0.53970000  1.0
  H  H981  1  0.69700000  0.94290000  0.46030000  1.0
  H  H982  1  0.30300000  0.76330000  0.24590000  1.0
  H  H983  1  0.51740000  0.05710000  0.75410000  1.0
  H  H1008  1  0.46030000  0.94290000  0.69700000  1.0
  H  H1009  1  0.53970000  0.23670000  0.48260000  1.0
  H  H1010  1  0.75410000  0.05710000  0.51740000  1.0
  H  H1011  1  0.24590000  0.76330000  0.30300000  1.0
  H  H1012  1  0.76330000  0.30300000  0.24590000  1.0
  H  H1013  1  0.05710000  0.51740000  0.75410000  1.0
  H  H1014  1  0.23670000  0.48260000  0.53970000  1.0
  H  H1015  1  0.94290000  0.69700000  0.46030000  1.0
  H  H1016  1  0.51740000  0.75410000  0.05710000  1.0
  H  H1017  1  0.30300000  0.24590000  0.76330000  1.0
  H  H1018  1  0.69700000  0.46030000  0.94290000  1.0
  H  H1019  1  0.48260000  0.53970000  0.23670000  1.0
  H  H1020  1  0.46030000  0.51740000  0.76330000  1.0
  H  H1021  1  0.53970000  0.30300000  0.05710000  1.0
  H  H1022  1  0.75410000  0.69700000  0.23670000  1.0
  H  H1023  1  0.24590000  0.48260000  0.94290000  1.0
  H  H1024  1  0.76330000  0.46030000  0.51740000  1.0
  H  H1025  1  0.05710000  0.53970000  0.30300000  1.0
  H  H1026  1  0.23670000  0.75410000  0.69700000  1.0
  H  H1027  1  0.94290000  0.24590000  0.48260000  1.0
  H  H1028  1  0.51740000  0.76330000  0.46030000  1.0
  H  H1029  1  0.30300000  0.05710000  0.53970000  1.0
  H  H1030  1  0.69700000  0.23670000  0.75410000  1.0
  H  H1031  1  0.48260000  0.94290000  0.24590000  1.0
  H  H1104  1  0.59570000  0.03670000  0.15660000  1.0
  H  H1105  1  0.40430000  0.56090000  0.44100000  1.0
  H  H1106  1  0.11990000  0.96330000  0.55900000  1.0
  H  H1107  1  0.88010000  0.43910000  0.84340000  1.0
  H  H1108  1  0.43910000  0.84340000  0.88010000  1.0
  H  H1109  1  0.96330000  0.55900000  0.11990000  1.0
  H  H1110  1  0.56090000  0.44100000  0.40430000  1.0
  H  H1111  1  0.03670000  0.15660000  0.59570000  1.0
  H  H1112  1  0.55900000  0.11990000  0.96330000  1.0
  H  H1113  1  0.84340000  0.88010000  0.43910000  1.0
  H  H1114  1  0.15660000  0.59570000  0.03670000  1.0
  H  H1115  1  0.44100000  0.40430000  0.56090000  1.0
  H  H1116  1  0.59570000  0.55900000  0.43910000  1.0
  H  H1117  1  0.40430000  0.84340000  0.96330000  1.0
  H  H1118  1  0.11990000  0.15660000  0.56090000  1.0
  H  H1119  1  0.88010000  0.44100000  0.03670000  1.0
  H  H1120  1  0.43910000  0.59570000  0.55900000  1.0
  H  H1121  1  0.96330000  0.40430000  0.84340000  1.0
  H  H1122  1  0.56090000  0.11990000  0.15660000  1.0
  H  H1123  1  0.03670000  0.88010000  0.44100000  1.0
  H  H1124  1  0.55900000  0.43910000  0.59570000  1.0
  H  H1125  1  0.84340000  0.96330000  0.40430000  1.0
  H  H1126  1  0.15660000  0.56090000  0.11990000  1.0
  H  H1127  1  0.44100000  0.03670000  0.88010000  1.0
  H  H1152  1  0.40430000  0.96330000  0.84340000  1.0
  H  H1153  1  0.59570000  0.43910000  0.55900000  1.0
  H  H1154  1  0.88010000  0.03670000  0.44100000  1.0
  H  H1155  1  0.11990000  0.56090000  0.15660000  1.0
  H  H1156  1  0.56090000  0.15660000  0.11990000  1.0
  H  H1157  1  0.03670000  0.44100000  0.88010000  1.0
  H  H1158  1  0.43910000  0.55900000  0.59570000  1.0
  H  H1159  1  0.96330000  0.84340000  0.40430000  1.0
  H  H1160  1  0.44100000  0.88010000  0.03670000  1.0
  H  H1161  1  0.15660000  0.11990000  0.56090000  1.0
  H  H1162  1  0.84340000  0.40430000  0.96330000  1.0
  H  H1163  1  0.55900000  0.59570000  0.43910000  1.0
  H  H1164  1  0.40430000  0.44100000  0.56090000  1.0
  H  H1165  1  0.59570000  0.15660000  0.03670000  1.0
  H  H1166  1  0.88010000  0.84340000  0.43910000  1.0
  H  H1167  1  0.11990000  0.55900000  0.96330000  1.0
  H  H1168  1  0.56090000  0.40430000  0.44100000  1.0
  H  H1169  1  0.03670000  0.59570000  0.15660000  1.0
  H  H1170  1  0.43910000  0.88010000  0.84340000  1.0
  H  H1171  1  0.96330000  0.11990000  0.55900000  1.0
  H  H1172  1  0.44100000  0.56090000  0.40430000  1.0
  H  H1173  1  0.15660000  0.03670000  0.59570000  1.0
  H  H1174  1  0.84340000  0.43910000  0.88010000  1.0
  H  H1175  1  0.55900000  0.96330000  0.11990000  1.0
  H  H1248  1  0.66890000  0.00050000  0.17960000  1.0
  H  H1249  1  0.33110000  0.51070000  0.33160000  1.0
  H  H1250  1  0.17910000  0.99950000  0.66840000  1.0
  H  H1251  1  0.82090000  0.48930000  0.82040000  1.0
  H  H1252  1  0.48930000  0.82040000  0.82090000  1.0
  H  H1253  1  0.99950000  0.66840000  0.17910000  1.0
  H  H1254  1  0.51070000  0.33160000  0.33110000  1.0
  H  H1255  1  0.00050000  0.17960000  0.66890000  1.0
  H  H1256  1  0.66840000  0.17910000  0.99950000  1.0
  H  H1257  1  0.82040000  0.82090000  0.48930000  1.0
  H  H1258  1  0.17960000  0.66890000  0.00050000  1.0
  H  H1259  1  0.33160000  0.33110000  0.51070000  1.0
  H  H1260  1  0.66890000  0.66840000  0.48930000  1.0
  H  H1261  1  0.33110000  0.82040000  0.99950000  1.0
  H  H1262  1  0.17910000  0.17960000  0.51070000  1.0
  H  H1263  1  0.82090000  0.33160000  0.00050000  1.0
  H  H1264  1  0.48930000  0.66890000  0.66840000  1.0
  H  H1265  1  0.99950000  0.33110000  0.82040000  1.0
  H  H1266  1  0.51070000  0.17910000  0.17960000  1.0
  H  H1267  1  0.00050000  0.82090000  0.33160000  1.0
  H  H1268  1  0.66840000  0.48930000  0.66890000  1.0
  H  H1269  1  0.82040000  0.99950000  0.33110000  1.0
  H  H1270  1  0.17960000  0.51070000  0.17910000  1.0
  H  H1271  1  0.33160000  0.00050000  0.82090000  1.0
  H  H1296  1  0.63200000  0.96390000  0.20230000  1.0
  H  H1297  1  0.36800000  0.57030000  0.33190000  1.0
  H  H1298  1  0.23840000  0.03610000  0.66810000  1.0
  H  H1299  1  0.76160000  0.42970000  0.79770000  1.0
  H  H1300  1  0.42970000  0.79770000  0.76160000  1.0
  H  H1301  1  0.03610000  0.66810000  0.23840000  1.0
  H  H1302  1  0.57030000  0.33190000  0.36800000  1.0
  H  H1303  1  0.96390000  0.20230000  0.63200000  1.0
  H  H1304  1  0.66810000  0.23840000  0.03610000  1.0
  H  H1305  1  0.79770000  0.76160000  0.42970000  1.0
  H  H1306  1  0.20230000  0.63200000  0.96390000  1.0
  H  H1307  1  0.33190000  0.36800000  0.57030000  1.0
  H  H1308  1  0.63200000  0.66810000  0.42970000  1.0
  H  H1309  1  0.36800000  0.79770000  0.03610000  1.0
  H  H1310  1  0.23840000  0.20230000  0.57030000  1.0
  H  H1311  1  0.76160000  0.33190000  0.96390000  1.0
  H  H1312  1  0.42970000  0.63200000  0.66810000  1.0
  H  H1313  1  0.03610000  0.36800000  0.79770000  1.0
  H  H1314  1  0.57030000  0.23840000  0.20230000  1.0
  H  H1315  1  0.96390000  0.76160000  0.33190000  1.0
  H  H1316  1  0.66810000  0.42970000  0.63200000  1.0
  H  H1317  1  0.79770000  0.03610000  0.36800000  1.0
  H  H1318  1  0.20230000  0.57030000  0.23840000  1.0
  H  H1319  1  0.33190000  0.96390000  0.76160000  1.0
  H  H1344  1  0.36800000  0.03610000  0.79770000  1.0
  H  H1345  1  0.63200000  0.42970000  0.66810000  1.0
  H  H1346  1  0.76160000  0.96390000  0.33190000  1.0
  H  H1347  1  0.23840000  0.57030000  0.20230000  1.0
  H  H1348  1  0.57030000  0.20230000  0.23840000  1.0
  H  H1349  1  0.96390000  0.33190000  0.76160000  1.0
  H  H1350  1  0.42970000  0.66810000  0.63200000  1.0
  H  H1351  1  0.03610000  0.79770000  0.36800000  1.0
  H  H1352  1  0.33190000  0.76160000  0.96390000  1.0
  H  H1353  1  0.20230000  0.23840000  0.57030000  1.0
  H  H1354  1  0.79770000  0.36800000  0.03610000  1.0
  H  H1355  1  0.66810000  0.63200000  0.42970000  1.0
  H  H1356  1  0.36800000  0.33190000  0.57030000  1.0
  H  H1357  1  0.63200000  0.20230000  0.96390000  1.0
  H  H1358  1  0.76160000  0.79770000  0.42970000  1.0
  H  H1359  1  0.23840000  0.66810000  0.03610000  1.0
  H  H1360  1  0.57030000  0.36800000  0.33190000  1.0
  H  H1361  1  0.96390000  0.63200000  0.20230000  1.0
  H  H1362  1  0.42970000  0.76160000  0.79770000  1.0
  H  H1363  1  0.03610000  0.23840000  0.66810000  1.0
  H  H1364  1  0.33190000  0.57030000  0.36800000  1.0
  H  H1365  1  0.20230000  0.96390000  0.63200000  1.0
  H  H1366  1  0.79770000  0.42970000  0.76160000  1.0
  H  H1367  1  0.66810000  0.03610000  0.23840000  1.0
  N  N48  1  0.61616000  0.19440000  0.35070000  1.0
  N  N49  1  0.38384000  0.73454000  0.57824000  1.0
  N  N50  1  0.15630000  0.80560000  0.42176000  1.0
  N  N51  1  0.84370000  0.26546000  0.64930000  1.0
  N  N52  1  0.26546000  0.64930000  0.84370000  1.0
  N  N53  1  0.80560000  0.42176000  0.15630000  1.0
  N  N54  1  0.73454000  0.57824000  0.38384000  1.0
  N  N55  1  0.19440000  0.35070000  0.61616000  1.0
  N  N56  1  0.42176000  0.15630000  0.80560000  1.0
  N  N57  1  0.64930000  0.84370000  0.26546000  1.0
  N  N58  1  0.35070000  0.61616000  0.19440000  1.0
  N  N59  1  0.57824000  0.38384000  0.73454000  1.0
  N  N60  1  0.61616000  0.42176000  0.26546000  1.0
  N  N61  1  0.38384000  0.64930000  0.80560000  1.0
  N  N62  1  0.15630000  0.35070000  0.73454000  1.0
  N  N63  1  0.84370000  0.57824000  0.19440000  1.0
  N  N64  1  0.26546000  0.61616000  0.42176000  1.0
  N  N65  1  0.80560000  0.38384000  0.64930000  1.0
  N  N66  1  0.73454000  0.15630000  0.35070000  1.0
  N  N67  1  0.19440000  0.84370000  0.57824000  1.0
  N  N68  1  0.42176000  0.26546000  0.61616000  1.0
  N  N69  1  0.64930000  0.80560000  0.38384000  1.0
  N  N70  1  0.35070000  0.73454000  0.15630000  1.0
  N  N71  1  0.57824000  0.19440000  0.84370000  1.0
  N  N96  1  0.38384000  0.80560000  0.64930000  1.0
  N  N97  1  0.61616000  0.26546000  0.42176000  1.0
  N  N98  1  0.84370000  0.19440000  0.57824000  1.0
  N  N99  1  0.15630000  0.73454000  0.35070000  1.0
  N  N100  1  0.73454000  0.35070000  0.15630000  1.0
  N  N101  1  0.19440000  0.57824000  0.84370000  1.0
  N  N102  1  0.26546000  0.42176000  0.61616000  1.0
  N  N103  1  0.80560000  0.64930000  0.38384000  1.0
  N  N104  1  0.57824000  0.84370000  0.19440000  1.0
  N  N105  1  0.35070000  0.15630000  0.73454000  1.0
  N  N106  1  0.64930000  0.38384000  0.80560000  1.0
  N  N107  1  0.42176000  0.61616000  0.26546000  1.0
  N  N108  1  0.38384000  0.57824000  0.73454000  1.0
  N  N109  1  0.61616000  0.35070000  0.19440000  1.0
  N  N110  1  0.84370000  0.64930000  0.26546000  1.0
  N  N111  1  0.15630000  0.42176000  0.80560000  1.0
  N  N112  1  0.73454000  0.38384000  0.57824000  1.0
  N  N113  1  0.19440000  0.61616000  0.35070000  1.0
  N  N114  1  0.26546000  0.84370000  0.64930000  1.0
  N  N115  1  0.80560000  0.15630000  0.42176000  1.0
  N  N116  1  0.57824000  0.73454000  0.38384000  1.0
  N  N117  1  0.35070000  0.19440000  0.61616000  1.0
  N  N118  1  0.64930000  0.26546000  0.84370000  1.0
  N  N119  1  0.42176000  0.80560000  0.15630000  1.0
  N  N240  1  0.57186000  0.05060000  0.23980000  1.0
  N  N241  1  0.42814000  0.66794000  0.47874000  1.0
  N  N242  1  0.18920000  0.94940000  0.52126000  1.0
  N  N243  1  0.81080000  0.33206000  0.76020000  1.0
  N  N244  1  0.33206000  0.76020000  0.81080000  1.0
  N  N245  1  0.94940000  0.52126000  0.18920000  1.0
  N  N246  1  0.66794000  0.47874000  0.42814000  1.0
  N  N247  1  0.05060000  0.23980000  0.57186000  1.0
  N  N248  1  0.52126000  0.18920000  0.94940000  1.0
  N  N249  1  0.76020000  0.81080000  0.33206000  1.0
  N  N250  1  0.23980000  0.57186000  0.05060000  1.0
  N  N251  1  0.47874000  0.42814000  0.66794000  1.0
  N  N252  1  0.57186000  0.52126000  0.33206000  1.0
  N  N253  1  0.42814000  0.76020000  0.94940000  1.0
  N  N254  1  0.18920000  0.23980000  0.66794000  1.0
  N  N255  1  0.81080000  0.47874000  0.05060000  1.0
  N  N256  1  0.33206000  0.57186000  0.52126000  1.0
  N  N257  1  0.94940000  0.42814000  0.76020000  1.0
  N  N258  1  0.66794000  0.18920000  0.23980000  1.0
  N  N259  1  0.05060000  0.81080000  0.47874000  1.0
  N  N260  1  0.52126000  0.33206000  0.57186000  1.0
  N  N261  1  0.76020000  0.94940000  0.42814000  1.0
  N  N262  1  0.23980000  0.66794000  0.18920000  1.0
  N  N263  1  0.47874000  0.05060000  0.81080000  1.0
  N  N288  1  0.42814000  0.94940000  0.76020000  1.0
  N  N289  1  0.57186000  0.33206000  0.52126000  1.0
  N  N290  1  0.81080000  0.05060000  0.47874000  1.0
  N  N291  1  0.18920000  0.66794000  0.23980000  1.0
  N  N292  1  0.66794000  0.23980000  0.18920000  1.0
  N  N293  1  0.05060000  0.47874000  0.81080000  1.0
  N  N294  1  0.33206000  0.52126000  0.57186000  1.0
  N  N295  1  0.94940000  0.76020000  0.42814000  1.0
  N  N296  1  0.47874000  0.81080000  0.05060000  1.0
  N  N297  1  0.23980000  0.18920000  0.66794000  1.0
  N  N298  1  0.76020000  0.42814000  0.94940000  1.0
  N  N299  1  0.52126000  0.57186000  0.33206000  1.0
  N  N300  1  0.42814000  0.47874000  0.66794000  1.0
  N  N301  1  0.57186000  0.23980000  0.05060000  1.0
  N  N302  1  0.81080000  0.76020000  0.33206000  1.0
  N  N303  1  0.18920000  0.52126000  0.94940000  1.0
  N  N304  1  0.66794000  0.42814000  0.47874000  1.0
  N  N305  1  0.05060000  0.57186000  0.23980000  1.0
  N  N306  1  0.33206000  0.81080000  0.76020000  1.0
  N  N307  1  0.94940000  0.18920000  0.52126000  1.0
  N  N308  1  0.47874000  0.66794000  0.42814000  1.0
  N  N309  1  0.23980000  0.05060000  0.57186000  1.0
  N  N310  1  0.76020000  0.33206000  0.81080000  1.0
  N  N311  1  0.52126000  0.94940000  0.18920000  1.0
