# generated using pymatgen
data_NpH10C6O11
_symmetry_space_group_name_H-M   'P 1'
_cell_length_a   8.56875000
_cell_length_b   13.17288000
_cell_length_c   9.60226000
_cell_angle_alpha   90.00000000
_cell_angle_beta   96.50301400
_cell_angle_gamma   90.00000000
_symmetry_Int_Tables_number   1
_chemical_formula_structural   NpH10C6O11
_chemical_formula_sum   'Np4 H40 C24 O44'
_cell_volume   1076.88256662
_cell_formula_units_Z   4
loop_
 _symmetry_equiv_pos_site_id
 _symmetry_equiv_pos_as_xyz
  1  'x, y, z'
loop_
 _atom_site_type_symbol
 _atom_site_label
 _atom_site_symmetry_multiplicity
 _atom_site_fract_x
 _atom_site_fract_y
 _atom_site_fract_z
 _atom_site_occupancy
  Np  Np0  1  0.45135200  0.23526200  0.00413200  1
  Np  Np1  1  0.04864800  0.73526200  0.49586800  1
  Np  Np2  1  0.54864800  0.76473800  0.00000000  1
  Np  Np3  1  0.95135200  0.26473800  0.50413200  1
  O  O4  1  0.44683170  0.20436100  0.74104140  1
  O  O5  1  0.05316830  0.70436100  0.75895860  1
  O  O6  1  0.55316830  0.79563900  0.25895860  1
  O  O7  1  0.94683170  0.29563900  0.24104140  1
  O  O20  1  0.45220180  0.06578100  0.86927140  1
  O  O21  1  0.04779820  0.56578100  0.63072860  1
  O  O22  1  0.54779820  0.93421900  0.13072860  1
  O  O23  1  0.95220180  0.43421900  0.36927140  1
  C  C24  1  0.47382000  0.04799120  0.62408180  1
  C  C25  1  0.02618000  0.54799120  0.87591820  1
  C  C26  1  0.52618000  0.95200880  0.37591820  1
  C  C27  1  0.97382000  0.45200880  0.12408180  1
  C  C28  1  0.59222000  0.97498880  0.62642170  1
  C  C29  1  0.90778000  0.47498880  0.87357830  1
  C  C30  1  0.40778000  0.02501120  0.37357830  1
  C  C31  1  0.09222000  0.52501120  0.12642170  1
  C  C32  1  0.37982000  0.07187120  0.49899180  1
  C  C33  1  0.12018000  0.57187120  0.00100820  1
  C  C34  1  0.62018000  0.92812880  0.50100820  1
  C  C35  1  0.87982000  0.42812880  0.00000000  1
  C  C36  1  0.23972000  0.14052120  0.50375180  1
  C  C37  1  0.26028000  0.64052120  0.00000000  1
  C  C38  1  0.76028000  0.85947880  0.49624820  1
  C  C39  1  0.73972000  0.35947880  0.00375180  1
  C  C40  1  0.45492000  0.10907120  0.75252180  1
  C  C41  1  0.04508000  0.60907120  0.74747820  1
  C  C42  1  0.54508000  0.89092880  0.24747820  1
  C  C43  1  0.95492000  0.39092880  0.25252180  1
  O  O44  1  0.21312160  0.21041000  0.41567140  1
  O  O45  1  0.28687840  0.71041000  0.08432860  1
  O  O46  1  0.78687840  0.78959000  0.58432860  1
  O  O47  1  0.71312160  0.28959000  0.91567140  1
  O  O48  1  0.64713160  0.88339000  0.83906140  1
  O  O49  1  0.85286840  0.38339000  0.66093860  1
  O  O50  1  0.35286840  0.11661000  0.16093860  1
  O  O51  1  0.14713160  0.61661000  0.33906140  1
  O  O52  1  0.14788160  0.12208100  0.59597140  1
  O  O53  1  0.35211840  0.62208100  0.90402860  1
  O  O54  1  0.85211840  0.87791900  0.40402860  1
  O  O55  1  0.64788160  0.37791900  0.09597140  1
  O  O56  1  0.82706160  0.99227900  0.78146160  1
  O  O57  1  0.67293840  0.49227900  0.71853840  1
  O  O58  1  0.17293840  0.00772100  0.21853840  1
  O  O59  1  0.32706160  0.50772100  0.28146160  1
  C  C60  1  0.69662000  0.94873880  0.76074180  1
  C  C61  1  0.80338000  0.44873880  0.73925820  1
  C  C62  1  0.30338000  0.05126120  0.23925820  1
  C  C63  1  0.19662000  0.55126120  0.26074180  1
