# generated using pymatgen
data_Hf3H22(C11O4)4
_symmetry_space_group_name_H-M   'P 1'
_cell_length_a   20.55241700
_cell_length_b   34.40920000
_cell_length_c   21.01601600
_cell_angle_alpha   90.00000000
_cell_angle_beta   90.00000000
_cell_angle_gamma   90.00000000
_symmetry_Int_Tables_number   1
_chemical_formula_structural   Hf3H22(C11O4)4
_chemical_formula_sum   'Hf12 H88 C176 O64'
_cell_volume   14862.36315847
_cell_formula_units_Z   4
loop_
 _symmetry_equiv_pos_site_id
 _symmetry_equiv_pos_as_xyz
  1  'x, y, z'
loop_
 _atom_site_type_symbol
 _atom_site_label
 _atom_site_symmetry_multiplicity
 _atom_site_fract_x
 _atom_site_fract_y
 _atom_site_fract_z
 _atom_site_occupancy
  Hf  Hf0  1  0.00000000  0.07062617  0.50000000  1
  Hf  Hf1  1  0.00000000  0.92937383  0.50000000  1
  Hf  Hf2  1  0.50000000  0.57062617  0.50000000  1
  Hf  Hf3  1  0.50000000  0.42937383  0.50000000  1
  Hf  Hf4  1  0.08551300  0.00000000  0.41616200  1
  Hf  Hf5  1  0.91448700  0.00000000  0.41616200  1
  Hf  Hf6  1  0.91448700  0.00000000  0.58383800  1
  Hf  Hf7  1  0.08551300  0.00000000  0.58383800  1
  Hf  Hf8  1  0.58551300  0.50000000  0.41616200  1
  Hf  Hf9  1  0.41448700  0.50000000  0.41616200  1
  Hf  Hf10  1  0.41448700  0.50000000  0.58383800  1
  Hf  Hf11  1  0.58551300  0.50000000  0.58383800  1
  O  O12  1  0.08675000  0.03443000  0.50000000  1
  O  O13  1  0.91325000  0.96557000  0.50000000  1
  O  O14  1  0.91325000  0.03443000  0.50000000  1
  O  O15  1  0.08675000  0.96557000  0.50000000  1
  O  O16  1  0.58675000  0.53443000  0.50000000  1
  O  O17  1  0.41325000  0.46557000  0.50000000  1
  O  O18  1  0.41325000  0.53443000  0.50000000  1
  O  O19  1  0.58675000  0.46557000  0.50000000  1
  O  O20  1  0.06433000  0.10376150  0.43803000  1
  O  O21  1  0.93567000  0.89623850  0.43803000  1
  O  O22  1  0.93567000  0.10376150  0.56197000  1
  O  O23  1  0.06433000  0.89623850  0.56197000  1
  O  O24  1  0.56433000  0.60376150  0.43803000  1
  O  O25  1  0.43567000  0.39623850  0.43803000  1
  O  O26  1  0.43567000  0.60376150  0.56197000  1
  O  O27  1  0.56433000  0.39623850  0.56197000  1
  O  O28  1  0.93567000  0.89623850  0.56197000  1
  O  O29  1  0.06433000  0.10376150  0.56197000  1
  O  O30  1  0.06433000  0.89623850  0.43803000  1
  O  O31  1  0.93567000  0.10376150  0.43803000  1
  O  O32  1  0.43567000  0.39623850  0.56197000  1
  O  O33  1  0.56433000  0.60376150  0.56197000  1
  O  O34  1  0.56433000  0.39623850  0.43803000  1
  O  O35  1  0.43567000  0.60376150  0.43803000  1
  O  O36  1  0.00000000  0.03483000  0.41475000  1
  O  O37  1  0.00000000  0.96517000  0.41475000  1
  O  O38  1  0.00000000  0.03483000  0.58525000  1
  O  O39  1  0.00000000  0.96517000  0.58525000  1
  O  O40  1  0.50000000  0.53483000  0.41475000  1
  O  O41  1  0.50000000  0.46517000  0.41475000  1
  O  O42  1  0.50000000  0.53483000  0.58525000  1
  O  O43  1  0.50000000  0.46517000  0.58525000  1
  O  O52  1  0.11914000  0.05878170  0.38173000  1
  O  O53  1  0.88086000  0.94121830  0.38173000  1
  O  O54  1  0.88086000  0.05878170  0.61827000  1
  O  O55  1  0.11914000  0.94121830  0.61827000  1
  O  O56  1  0.61914000  0.55878170  0.38173000  1
  O  O57  1  0.38086000  0.44121830  0.38173000  1
  O  O58  1  0.38086000  0.55878170  0.61827000  1
  O  O59  1  0.61914000  0.44121830  0.61827000  1
  O  O60  1  0.88086000  0.94121830  0.61827000  1
  O  O61  1  0.11914000  0.05878170  0.61827000  1
  O  O62  1  0.11914000  0.94121830  0.38173000  1
  O  O63  1  0.88086000  0.05878170  0.38173000  1
  O  O64  1  0.38086000  0.44121830  0.61827000  1
  O  O65  1  0.61914000  0.55878170  0.61827000  1
  O  O66  1  0.61914000  0.44121830  0.38173000  1
  O  O67  1  0.38086000  0.55878170  0.38173000  1
  C  C76  1  0.10277000  0.09323000  0.39605000  1
  C  C77  1  0.89723000  0.90677000  0.39605000  1
  C  C78  1  0.89723000  0.09323000  0.60395000  1
  C  C79  1  0.10277000  0.90677000  0.60395000  1
  C  C80  1  0.60277000  0.59323000  0.39605000  1
  C  C81  1  0.39723000  0.40677000  0.39605000  1
  C  C82  1  0.39723000  0.59323000  0.60395000  1
  C  C83  1  0.60277000  0.40677000  0.60395000  1
  C  C84  1  0.89723000  0.90677000  0.60395000  1
  C  C85  1  0.10277000  0.09323000  0.60395000  1
  C  C86  1  0.10277000  0.90677000  0.39605000  1
  C  C87  1  0.89723000  0.09323000  0.39605000  1
  C  C88  1  0.39723000  0.40677000  0.60395000  1
  C  C89  1  0.60277000  0.59323000  0.60395000  1
  C  C90  1  0.60277000  0.40677000  0.39605000  1
  C  C91  1  0.39723000  0.59323000  0.39605000  1
  C  C92  1  0.13976000  0.12493000  0.35885000  1
  C  C93  1  0.86024000  0.87507000  0.35885000  1
  C  C94  1  0.86024000  0.12493000  0.64115000  1
  C  C95  1  0.13976000  0.87507000  0.64115000  1
  C  C96  1  0.63976000  0.62493000  0.35885000  1
  C  C97  1  0.36024000  0.37507000  0.35885000  1
  C  C98  1  0.36024000  0.62493000  0.64115000  1
  C  C99  1  0.63976000  0.37507000  0.64115000  1
  C  C100  1  0.86024000  0.87507000  0.64115000  1
  C  C101  1  0.13976000  0.12493000  0.64115000  1
  C  C102  1  0.13976000  0.87507000  0.35885000  1
  C  C103  1  0.86024000  0.12493000  0.35885000  1
  C  C104  1  0.36024000  0.37507000  0.64115000  1
  C  C105  1  0.63976000  0.62493000  0.64115000  1
  C  C106  1  0.63976000  0.37507000  0.35885000  1
  C  C107  1  0.36024000  0.62493000  0.35885000  1
  C  C108  1  0.17486000  0.11713000  0.30734000  1
  C  C109  1  0.82514000  0.88287000  0.30734000  1
  C  C110  1  0.82514000  0.11713000  0.69266000  1
  C  C111  1  0.17486000  0.88287000  0.69266000  1
  C  C112  1  0.67486000  0.61713000  0.30734000  1
  C  C113  1  0.32514000  0.38287000  0.30734000  1
  C  C114  1  0.32514000  0.61713000  0.69266000  1
  C  C115  1  0.67486000  0.38287000  0.69266000  1
  C  C116  1  0.82514000  0.88287000  0.69266000  1
  C  C117  1  0.17486000  0.11713000  0.69266000  1
  C  C118  1  0.17486000  0.88287000  0.30734000  1
  C  C119  1  0.82514000  0.11713000  0.30734000  1
  C  C120  1  0.32514000  0.38287000  0.69266000  1
  C  C121  1  0.67486000  0.61713000  0.69266000  1
  C  C122  1  0.67486000  0.38287000  0.30734000  1
  C  C123  1  0.32514000  0.61713000  0.30734000  1
  H  H124  1  0.18160000  0.09100000  0.29390000  1
  H  H125  1  0.81840000  0.90900000  0.29390000  1
  H  H126  1  0.81840000  0.09100000  0.70610000  1
  H  H127  1  0.18160000  0.90900000  0.70610000  1
  H  H128  1  0.68160000  0.59100000  0.29390000  1
  H  H129  1  0.31840000  0.40900000  0.29390000  1
  H  H130  1  0.31840000  0.59100000  0.70610000  1
  H  H131  1  0.68160000  0.40900000  0.70610000  1
  H  H132  1  0.81840000  0.90900000  0.70610000  1
  H  H133  1  0.18160000  0.09100000  0.70610000  1
  H  H134  1  0.18160000  0.90900000  0.29390000  1
  H  H135  1  0.81840000  0.09100000  0.29390000  1
  H  H136  1  0.31840000  0.40900000  0.70610000  1
  H  H137  1  0.68160000  0.59100000  0.70610000  1
  H  H138  1  0.68160000  0.40900000  0.29390000  1
  H  H139  1  0.31840000  0.59100000  0.29390000  1
  C  C140  1  0.25000000  0.25000000  0.28685000  1
  C  C141  1  0.75000000  0.75000000  0.28685000  1
  C  C142  1  0.75000000  0.25000000  0.71315000  1
  C  C143  1  0.25000000  0.75000000  0.71315000  1
  C  C144  1  0.75000000  0.75000000  0.71315000  1
  C  C145  1  0.25000000  0.25000000  0.71315000  1
  C  C146  1  0.25000000  0.75000000  0.28685000  1
  C  C147  1  0.75000000  0.25000000  0.28685000  1
  H  H148  1  0.25000000  0.25000000  0.33200000  1
  H  H149  1  0.75000000  0.75000000  0.33200000  1
  H  H150  1  0.75000000  0.25000000  0.66800000  1
  H  H151  1  0.25000000  0.75000000  0.66800000  1
  H  H152  1  0.75000000  0.75000000  0.66800000  1
  H  H153  1  0.25000000  0.25000000  0.66800000  1
  H  H154  1  0.25000000  0.75000000  0.33200000  1
  H  H155  1  0.75000000  0.25000000  0.33200000  1
  C  C156  1  0.19706000  0.18533000  0.29204000  1
  C  C157  1  0.80294000  0.81467000  0.29204000  1
  C  C158  1  0.80294000  0.18533000  0.70796000  1
  C  C159  1  0.19706000  0.81467000  0.70796000  1
  C  C160  1  0.69706000  0.68533000  0.29204000  1
  C  C161  1  0.30294000  0.31467000  0.29204000  1
  C  C162  1  0.30294000  0.68533000  0.70796000  1
  C  C163  1  0.69706000  0.31467000  0.70796000  1
  C  C164  1  0.80294000  0.81467000  0.70796000  1
  C  C165  1  0.19706000  0.18533000  0.70796000  1
  C  C166  1  0.19706000  0.81467000  0.29204000  1
  C  C167  1  0.80294000  0.18533000  0.29204000  1
  C  C168  1  0.30294000  0.31467000  0.70796000  1
  C  C169  1  0.69706000  0.68533000  0.70796000  1
  C  C170  1  0.69706000  0.31467000  0.29204000  1
  C  C171  1  0.30294000  0.68533000  0.29204000  1
  C  C172  1  0.22437000  0.21883000  0.18944000  1
  C  C173  1  0.77563000  0.78117000  0.18944000  1
  C  C174  1  0.77563000  0.21883000  0.81056000  1
  C  C175  1  0.22437000  0.78117000  0.81056000  1
  C  C176  1  0.72437000  0.71883000  0.18944000  1
  C  C177  1  0.27563000  0.28117000  0.18944000  1
  C  C178  1  0.27563000  0.71883000  0.81056000  1
  C  C179  1  0.72437000  0.28117000  0.81056000  1
  C  C180  1  0.77563000  0.78117000  0.81056000  1
  C  C181  1  0.22437000  0.21883000  0.81056000  1
  C  C182  1  0.22437000  0.78117000  0.18944000  1
  C  C183  1  0.77563000  0.21883000  0.18944000  1
  C  C184  1  0.27563000  0.28117000  0.81056000  1
  C  C185  1  0.72437000  0.71883000  0.81056000  1
  C  C186  1  0.72437000  0.28117000  0.18944000  1
  C  C187  1  0.27563000  0.71883000  0.18944000  1
  H  H188  1  0.20850000  0.19720000  0.16590000  1
  H  H189  1  0.79150000  0.80280000  0.16590000  1
  H  H190  1  0.79150000  0.19720000  0.83410000  1
  H  H191  1  0.20850000  0.80280000  0.83410000  1
  H  H192  1  0.70850000  0.69720000  0.16590000  1
  H  H193  1  0.29150000  0.30280000  0.16590000  1
  H  H194  1  0.29150000  0.69720000  0.83410000  1
  H  H195  1  0.70850000  0.30280000  0.83410000  1
  H  H196  1  0.79150000  0.80280000  0.83410000  1
  H  H197  1  0.20850000  0.19720000  0.83410000  1
  H  H198  1  0.20850000  0.80280000  0.16590000  1
  H  H199  1  0.79150000  0.19720000  0.16590000  1
  H  H200  1  0.29150000  0.30280000  0.83410000  1
  H  H201  1  0.70850000  0.69720000  0.83410000  1
  H  H202  1  0.70850000  0.30280000  0.16590000  1
  H  H203  1  0.29150000  0.69720000  0.16590000  1
  C  C204  1  0.20157000  0.14813000  0.27335000  1
  C  C205  1  0.79843000  0.85187000  0.27335000  1
  C  C206  1  0.79843000  0.14813000  0.72665000  1
  C  C207  1  0.20157000  0.85187000  0.72665000  1
  C  C208  1  0.70157000  0.64813000  0.27335000  1
  C  C209  1  0.29843000  0.35187000  0.27335000  1
  C  C210  1  0.29843000  0.64813000  0.72665000  1
  C  C211  1  0.70157000  0.35187000  0.72665000  1
  C  C212  1  0.79843000  0.85187000  0.72665000  1
  C  C213  1  0.20157000  0.14813000  0.72665000  1
  C  C214  1  0.20157000  0.85187000  0.27335000  1
  C  C215  1  0.79843000  0.14813000  0.27335000  1
  C  C216  1  0.29843000  0.35187000  0.72665000  1
  C  C217  1  0.70157000  0.64813000  0.72665000  1
  C  C218  1  0.70157000  0.35187000  0.27335000  1
  C  C219  1  0.29843000  0.64813000  0.27335000  1
  H  H220  1  0.22410000  0.14260000  0.23490000  1
  H  H221  1  0.77590000  0.85740000  0.23490000  1
  H  H222  1  0.77590000  0.14260000  0.76510000  1
  H  H223  1  0.22410000  0.85740000  0.76510000  1
  H  H224  1  0.72410000  0.64260000  0.23490000  1
  H  H225  1  0.27590000  0.35740000  0.23490000  1
  H  H226  1  0.27590000  0.64260000  0.76510000  1
  H  H227  1  0.72410000  0.35740000  0.76510000  1
  H  H228  1  0.77590000  0.85740000  0.76510000  1
  H  H229  1  0.22410000  0.14260000  0.76510000  1
  H  H230  1  0.22410000  0.85740000  0.23490000  1
  H  H231  1  0.77590000  0.14260000  0.23490000  1
  H  H232  1  0.27590000  0.35740000  0.76510000  1
  H  H233  1  0.72410000  0.64260000  0.76510000  1
  H  H234  1  0.72410000  0.35740000  0.23490000  1
  H  H235  1  0.27590000  0.64260000  0.23490000  1
  C  C236  1  0.22116000  0.21843000  0.25574000  1
  C  C237  1  0.77884000  0.78157000  0.25574000  1
  C  C238  1  0.77884000  0.21843000  0.74426000  1
  C  C239  1  0.22116000  0.78157000  0.74426000  1
  C  C240  1  0.72116000  0.71843000  0.25574000  1
  C  C241  1  0.27884000  0.28157000  0.25574000  1
  C  C242  1  0.27884000  0.71843000  0.74426000  1
  C  C243  1  0.72116000  0.28157000  0.74426000  1
  C  C244  1  0.77884000  0.78157000  0.74426000  1
  C  C245  1  0.22116000  0.21843000  0.74426000  1
  C  C246  1  0.22116000  0.78157000  0.25574000  1
  C  C247  1  0.77884000  0.21843000  0.25574000  1
  C  C248  1  0.27884000  0.28157000  0.74426000  1
  C  C249  1  0.72116000  0.71843000  0.74426000  1
  C  C250  1  0.72116000  0.28157000  0.25574000  1
  C  C251  1  0.27884000  0.71843000  0.25574000  1
  C  C252  1  0.12937000  0.16332000  0.37904000  1
  C  C253  1  0.87063000  0.83668000  0.37904000  1
  C  C254  1  0.87063000  0.16332000  0.62096000  1
  C  C255  1  0.12937000  0.83668000  0.62096000  1
  C  C256  1  0.62937000  0.66332000  0.37904000  1
  C  C257  1  0.37063000  0.33668000  0.37904000  1
  C  C258  1  0.37063000  0.66332000  0.62096000  1
  C  C259  1  0.62937000  0.33668000  0.62096000  1
  C  C260  1  0.87063000  0.83668000  0.62096000  1
  C  C261  1  0.12937000  0.16332000  0.62096000  1
  C  C262  1  0.12937000  0.83668000  0.37904000  1
  C  C263  1  0.87063000  0.16332000  0.37904000  1
  C  C264  1  0.37063000  0.33668000  0.62096000  1
  C  C265  1  0.62937000  0.66332000  0.62096000  1
  C  C266  1  0.62937000  0.33668000  0.37904000  1
  C  C267  1  0.37063000  0.66332000  0.37904000  1
  H  H268  1  0.10320000  0.16890000  0.41520000  1
  H  H269  1  0.89680000  0.83110000  0.41520000  1
  H  H270  1  0.89680000  0.16890000  0.58480000  1
  H  H271  1  0.10320000  0.83110000  0.58480000  1
  H  H272  1  0.60320000  0.66890000  0.41520000  1
  H  H273  1  0.39680000  0.33110000  0.41520000  1
  H  H274  1  0.39680000  0.66890000  0.58480000  1
  H  H275  1  0.60320000  0.33110000  0.58480000  1
  H  H276  1  0.89680000  0.83110000  0.58480000  1
  H  H277  1  0.10320000  0.16890000  0.58480000  1
  H  H278  1  0.10320000  0.83110000  0.41520000  1
  H  H279  1  0.89680000  0.16890000  0.41520000  1
  H  H280  1  0.39680000  0.33110000  0.58480000  1
  H  H281  1  0.60320000  0.66890000  0.58480000  1
  H  H282  1  0.60320000  0.33110000  0.41520000  1
  H  H283  1  0.39680000  0.66890000  0.41520000  1
  C  C284  1  0.15757000  0.19193000  0.34565000  1
  C  C285  1  0.84243000  0.80807000  0.34565000  1
  C  C286  1  0.84243000  0.19193000  0.65435000  1
  C  C287  1  0.15757000  0.80807000  0.65435000  1
  C  C288  1  0.65757000  0.69193000  0.34565000  1
  C  C289  1  0.34243000  0.30807000  0.34565000  1
  C  C290  1  0.34243000  0.69193000  0.65435000  1
  C  C291  1  0.65757000  0.30807000  0.65435000  1
  C  C292  1  0.84243000  0.80807000  0.65435000  1
  C  C293  1  0.15757000  0.19193000  0.65435000  1
  C  C294  1  0.15757000  0.80807000  0.34565000  1
  C  C295  1  0.84243000  0.19193000  0.34565000  1
  C  C296  1  0.34243000  0.30807000  0.65435000  1
  C  C297  1  0.65757000  0.69193000  0.65435000  1
  C  C298  1  0.65757000  0.30807000  0.34565000  1
  C  C299  1  0.34243000  0.69193000  0.34565000  1
  H  H300  1  0.15050000  0.21790000  0.35880000  1
  H  H301  1  0.84950000  0.78210000  0.35880000  1
  H  H302  1  0.84950000  0.21790000  0.64120000  1
  H  H303  1  0.15050000  0.78210000  0.64120000  1
  H  H304  1  0.65050000  0.71790000  0.35880000  1
  H  H305  1  0.34950000  0.28210000  0.35880000  1
  H  H306  1  0.34950000  0.71790000  0.64120000  1
  H  H307  1  0.65050000  0.28210000  0.64120000  1
  H  H308  1  0.84950000  0.78210000  0.64120000  1
  H  H309  1  0.15050000  0.21790000  0.64120000  1
  H  H310  1  0.15050000  0.78210000  0.35880000  1
  H  H311  1  0.84950000  0.21790000  0.35880000  1
  H  H312  1  0.34950000  0.28210000  0.64120000  1
  H  H313  1  0.65050000  0.71790000  0.64120000  1
  H  H314  1  0.65050000  0.28210000  0.35880000  1
  H  H315  1  0.34950000  0.71790000  0.35880000  1
  C  C316  1  0.25000000  0.25000000  0.15795000  1
  C  C317  1  0.75000000  0.75000000  0.15795000  1
  C  C318  1  0.75000000  0.25000000  0.84205000  1
  C  C319  1  0.25000000  0.75000000  0.84205000  1
  C  C320  1  0.75000000  0.75000000  0.84205000  1
  C  C321  1  0.25000000  0.25000000  0.84205000  1
  C  C322  1  0.25000000  0.75000000  0.15795000  1
  C  C323  1  0.75000000  0.25000000  0.15795000  1
  C  C324  1  0.25000000  0.25000000  0.08737000  1
  C  C325  1  0.75000000  0.75000000  0.08737000  1
  C  C326  1  0.75000000  0.25000000  0.91263000  1
  C  C327  1  0.25000000  0.75000000  0.91263000  1
  C  C328  1  0.75000000  0.75000000  0.91263000  1
  C  C329  1  0.25000000  0.25000000  0.91263000  1
  C  C330  1  0.25000000  0.75000000  0.08737000  1
  C  C331  1  0.75000000  0.25000000  0.08737000  1
  C  C332  1  0.25000000  0.25000000  0.03367000  1
  C  C333  1  0.75000000  0.75000000  0.03367000  1
  C  C334  1  0.75000000  0.25000000  0.96633000  1
  C  C335  1  0.25000000  0.75000000  0.96633000  1
  C  C336  1  0.75000000  0.75000000  0.96633000  1
  C  C337  1  0.25000000  0.25000000  0.96633000  1
  C  C338  1  0.25000000  0.75000000  0.03367000  1
  C  C339  1  0.75000000  0.25000000  0.03367000  1
