# generated using pymatgen
data_Zr3H32C40(NO8)2
_symmetry_space_group_name_H-M   'P 1'
_cell_length_a   40.91898000
_cell_length_b   40.91898000
_cell_length_c   15.12575000
_cell_angle_alpha   90.00000000
_cell_angle_beta   90.00000000
_cell_angle_gamma   120.00000000
_symmetry_Int_Tables_number   1
_chemical_formula_structural   Zr3H32C40(NO8)2
_cell_volume   21932.95504727
_cell_formula_units_Z   6
loop_
 _symmetry_equiv_pos_site_id
 _symmetry_equiv_pos_as_xyz
  1  'x, y, z'
loop_
 _atom_site_type_symbol
 _atom_site_label
 _atom_site_symmetry_multiplicity
 _atom_site_fract_x
 _atom_site_fract_y
 _atom_site_fract_z
 _atom_site_occupancy
  Zr  Zr0  1  0.46544733  0.53455713  0.00000000  1
  Zr  Zr1  1  0.93089020  0.46544733  0.00000000  1
  Zr  Zr2  1  0.46544287  0.93089020  0.00000000  1
  Zr  Zr3  1  0.53455267  0.06910980  0.00000000  1
  Zr  Zr4  1  0.53455267  0.46544287  0.00000000  1
  Zr  Zr5  1  0.06910980  0.53455713  0.00000000  1
  Zr  Zr6  1  0.45694218  0.45694218  0.11723400  1
  Zr  Zr7  1  0.00000000  0.45694218  0.11723400  1
  Zr  Zr8  1  0.54305782  0.54305782  0.88276600  1
  Zr  Zr9  1  0.54305782  0.00000000  0.11723400  1
  Zr  Zr10  1  0.54305782  0.00000000  0.88276600  1
  Zr  Zr11  1  0.00000000  0.54305782  0.88276600  1
  Zr  Zr12  1  0.54305782  0.54305782  0.11723400  1
  Zr  Zr13  1  0.00000000  0.45694218  0.88276600  1
  Zr  Zr14  1  0.45694218  0.00000000  0.88276600  1
  Zr  Zr15  1  0.45694218  0.00000000  0.11723400  1
  Zr  Zr16  1  0.00000000  0.54305782  0.11723400  1
  Zr  Zr17  1  0.45694218  0.45694218  0.88276600  1
  N  N18  1  0.23348330  0.46703000  0.16805000  1
  N  N19  1  0.76645330  0.23348330  0.16805000  1
  N  N20  1  0.53297000  0.76651670  0.83195000  1
  N  N21  1  0.53297000  0.76645330  0.16805000  1
  N  N22  1  0.76651670  0.23354670  0.83195000  1
  N  N23  1  0.76645330  0.53297000  0.83195000  1
  N  N24  1  0.76651670  0.53297000  0.16805000  1
  N  N25  1  0.23354670  0.46703000  0.83195000  1
  N  N26  1  0.23348330  0.76645330  0.83195000  1
  N  N27  1  0.46703000  0.23354670  0.16805000  1
  N  N28  1  0.23354670  0.76651670  0.16805000  1
  N  N29  1  0.46703000  0.23348330  0.83195000  1
  H  H30  1  0.25010000  0.46420000  0.14040000  1
  H  H31  1  0.78590000  0.25010000  0.14040000  1
  H  H32  1  0.53580000  0.74990000  0.85960000  1
  H  H33  1  0.53580000  0.78590000  0.14040000  1
  H  H34  1  0.74990000  0.21410000  0.85960000  1
  H  H35  1  0.78590000  0.53580000  0.85960000  1
  H  H36  1  0.74990000  0.53580000  0.14040000  1
  H  H37  1  0.21410000  0.46420000  0.85960000  1
  H  H38  1  0.25010000  0.78590000  0.85960000  1
  H  H39  1  0.46420000  0.21410000  0.14040000  1
  H  H40  1  0.21410000  0.74990000  0.14040000  1
  H  H41  1  0.46420000  0.25010000  0.85960000  1
  H  H42  1  0.74990000  0.53580000  0.85960000  1
  H  H43  1  0.21410000  0.74990000  0.85960000  1
  H  H44  1  0.46420000  0.25010000  0.14040000  1
  H  H45  1  0.46420000  0.21410000  0.85960000  1
  H  H46  1  0.25010000  0.78590000  0.14040000  1
  H  H47  1  0.21410000  0.46420000  0.14040000  1
  H  H48  1  0.25010000  0.46420000  0.85960000  1
  H  H49  1  0.78590000  0.53580000  0.14040000  1
  H  H50  1  0.74990000  0.21410000  0.14040000  1
  H  H51  1  0.53580000  0.78590000  0.85960000  1
  H  H52  1  0.78590000  0.25010000  0.85960000  1
  H  H53  1  0.53580000  0.74990000  0.14040000  1
  O  O54  1  0.41852150  0.51842110  0.08522000  1
  O  O55  1  0.90010040  0.41852150  0.08522000  1
  O  O56  1  0.48157890  0.58147850  0.91478000  1
  O  O57  1  0.48157890  0.90010040  0.08522000  1
  O  O58  1  0.58147850  0.09989960  0.91478000  1
  O  O59  1  0.90010040  0.48157890  0.91478000  1
  O  O60  1  0.58147850  0.48157890  0.08522000  1
  O  O61  1  0.09989960  0.51842110  0.91478000  1
  O  O62  1  0.41852150  0.90010040  0.91478000  1
  O  O63  1  0.51842110  0.09989960  0.08522000  1
  O  O64  1  0.09989960  0.58147850  0.08522000  1
  O  O65  1  0.51842110  0.41852150  0.91478000  1
  O  O66  1  0.58147850  0.48157890  0.91478000  1
  O  O67  1  0.09989960  0.58147850  0.91478000  1
  O  O68  1  0.51842110  0.41852150  0.08522000  1
  O  O69  1  0.51842110  0.09989960  0.91478000  1
  O  O70  1  0.41852150  0.90010040  0.08522000  1
  O  O71  1  0.09989960  0.51842110  0.08522000  1
  O  O72  1  0.41852150  0.51842110  0.91478000  1
  O  O73  1  0.90010040  0.48157890  0.08522000  1
  O  O74  1  0.58147850  0.09989960  0.08522000  1
  O  O75  1  0.48157890  0.90010040  0.91478000  1
  O  O76  1  0.90010040  0.41852150  0.91478000  1
  O  O77  1  0.48157890  0.58147850  0.08522000  1
  O  O78  1  0.41150160  0.46762110  0.15813000  1
  O  O79  1  0.94388050  0.41150160  0.15813000  1
  O  O80  1  0.53237890  0.58849840  0.84187000  1
  O  O81  1  0.53237890  0.94388050  0.15813000  1
  O  O82  1  0.58849840  0.05611950  0.84187000  1
  O  O83  1  0.94388050  0.53237890  0.84187000  1
  O  O84  1  0.58849840  0.53237890  0.15813000  1
  O  O85  1  0.05611950  0.46762110  0.84187000  1
  O  O86  1  0.41150160  0.94388050  0.84187000  1
  O  O87  1  0.46762110  0.05611950  0.15813000  1
  O  O88  1  0.05611950  0.58849840  0.15813000  1
  O  O89  1  0.46762110  0.41150160  0.84187000  1
  O  O90  1  0.58849840  0.53237890  0.84187000  1
  O  O91  1  0.05611950  0.58849840  0.84187000  1
  O  O92  1  0.46762110  0.41150160  0.15813000  1
  O  O93  1  0.46762110  0.05611950  0.84187000  1
  O  O94  1  0.41150160  0.94388050  0.15813000  1
  O  O95  1  0.05611950  0.46762110  0.15813000  1
  O  O96  1  0.41150160  0.46762110  0.84187000  1
  O  O97  1  0.94388050  0.53237890  0.15813000  1
  O  O98  1  0.58849840  0.05611950  0.15813000  1
  O  O99  1  0.53237890  0.94388050  0.84187000  1
  O  O100  1  0.94388050  0.41150160  0.84187000  1
  O  O101  1  0.53237890  0.58849840  0.15813000  1
  O  O102  1  0.44423160  0.47497120  0.00000000  1
  O  O103  1  0.96926040  0.44423160  0.00000000  1
  O  O104  1  0.52502880  0.55576840  0.00000000  1
  O  O105  1  0.52502880  0.96926040  0.00000000  1
  O  O106  1  0.55576840  0.03073960  0.00000000  1
  O  O107  1  0.96926040  0.52502880  0.00000000  1
  O  O108  1  0.55576840  0.52502880  0.00000000  1
  O  O109  1  0.03073960  0.47497120  0.00000000  1
  O  O110  1  0.44423160  0.96926040  0.00000000  1
  O  O111  1  0.47497120  0.03073960  0.00000000  1
  O  O112  1  0.03073960  0.55576840  0.00000000  1
  O  O113  1  0.47497120  0.44423160  0.00000000  1
  O  O114  1  0.48378130  0.51621600  0.10913000  1
  O  O115  1  0.96756530  0.48378130  0.10913000  1
  O  O116  1  0.48378400  0.51621870  0.89087000  1
  O  O117  1  0.48378400  0.96756530  0.10913000  1
  O  O118  1  0.51621870  0.03243470  0.89087000  1
  O  O119  1  0.96756530  0.48378400  0.89087000  1
  O  O120  1  0.51621870  0.48378400  0.10913000  1
  O  O121  1  0.03243470  0.51621600  0.89087000  1
  O  O122  1  0.48378130  0.96756530  0.89087000  1
  O  O123  1  0.51621600  0.03243470  0.10913000  1
  O  O124  1  0.03243470  0.51621870  0.10913000  1
  O  O125  1  0.51621600  0.48378130  0.89087000  1
  C  C198  1  0.40283000  0.49122000  0.13614000  1
  C  C199  1  0.91161000  0.40283000  0.13614000  1
  C  C200  1  0.50878000  0.59717000  0.86386000  1
  C  C201  1  0.50878000  0.91161000  0.13614000  1
  C  C202  1  0.59717000  0.08839000  0.86386000  1
  C  C203  1  0.91161000  0.50878000  0.86386000  1
  C  C204  1  0.59717000  0.50878000  0.13614000  1
  C  C205  1  0.08839000  0.49122000  0.86386000  1
  C  C206  1  0.40283000  0.91161000  0.86386000  1
  C  C207  1  0.49122000  0.08839000  0.13614000  1
  C  C208  1  0.08839000  0.59717000  0.13614000  1
  C  C209  1  0.49122000  0.40283000  0.86386000  1
  C  C210  1  0.59717000  0.50878000  0.86386000  1
  C  C211  1  0.08839000  0.59717000  0.86386000  1
  C  C212  1  0.49122000  0.40283000  0.13614000  1
  C  C213  1  0.49122000  0.08839000  0.86386000  1
  C  C214  1  0.40283000  0.91161000  0.13614000  1
  C  C215  1  0.08839000  0.49122000  0.13614000  1
  C  C216  1  0.40283000  0.49122000  0.86386000  1
  C  C217  1  0.91161000  0.50878000  0.13614000  1
  C  C218  1  0.59717000  0.08839000  0.13614000  1
  C  C219  1  0.50878000  0.91161000  0.86386000  1
  C  C220  1  0.91161000  0.40283000  0.86386000  1
  C  C221  1  0.50878000  0.59717000  0.13614000  1
  C  C222  1  0.36787260  0.48712000  0.18634000  1
  C  C223  1  0.88075260  0.36787260  0.18634000  1
  C  C224  1  0.51288000  0.63212740  0.81366000  1
  C  C225  1  0.51288000  0.88075260  0.18634000  1
  C  C226  1  0.63212740  0.11924740  0.81366000  1
  C  C227  1  0.88075260  0.51288000  0.81366000  1
  C  C228  1  0.63212740  0.51288000  0.18634000  1
  C  C229  1  0.11924740  0.48712000  0.81366000  1
  C  C230  1  0.36787260  0.88075260  0.81366000  1
  C  C231  1  0.48712000  0.11924740  0.18634000  1
  C  C232  1  0.11924740  0.63212740  0.18634000  1
  C  C233  1  0.48712000  0.36787260  0.81366000  1
  C  C234  1  0.63212740  0.51288000  0.81366000  1
  C  C235  1  0.11924740  0.63212740  0.81366000  1
  C  C236  1  0.48712000  0.36787260  0.18634000  1
  C  C237  1  0.48712000  0.11924740  0.81366000  1
  C  C238  1  0.36787260  0.88075260  0.18634000  1
  C  C239  1  0.11924740  0.48712000  0.18634000  1
  C  C240  1  0.36787260  0.48712000  0.81366000  1
  C  C241  1  0.88075260  0.51288000  0.18634000  1
  C  C242  1  0.63212740  0.11924740  0.18634000  1
  C  C243  1  0.51288000  0.88075260  0.81366000  1
  C  C244  1  0.88075260  0.36787260  0.81366000  1
  C  C245  1  0.51288000  0.63212740  0.18634000  1
  C  C246  1  0.35665250  0.51516180  0.16854000  1
  C  C247  1  0.84149070  0.35665250  0.16854000  1
  C  C248  1  0.48483820  0.64334750  0.83146000  1
  C  C249  1  0.48483820  0.84149070  0.16854000  1
  C  C250  1  0.64334750  0.15850930  0.83146000  1
  C  C251  1  0.84149070  0.48483820  0.83146000  1
  C  C252  1  0.64334750  0.48483820  0.16854000  1
  C  C253  1  0.15850930  0.51516180  0.83146000  1
  C  C254  1  0.35665250  0.84149070  0.83146000  1
  C  C255  1  0.51516180  0.15850930  0.16854000  1
  C  C256  1  0.15850930  0.64334750  0.16854000  1
  C  C257  1  0.51516180  0.35665250  0.83146000  1
  C  C258  1  0.64334750  0.48483820  0.83146000  1
  C  C259  1  0.15850930  0.64334750  0.83146000  1
  C  C260  1  0.51516180  0.35665250  0.16854000  1
  C  C261  1  0.51516180  0.15850930  0.83146000  1
  C  C262  1  0.35665250  0.84149070  0.16854000  1
  C  C263  1  0.15850930  0.51516180  0.16854000  1
  C  C264  1  0.35665250  0.51516180  0.83146000  1
  C  C265  1  0.84149070  0.48483820  0.16854000  1
  C  C266  1  0.64334750  0.15850930  0.16854000  1
  C  C267  1  0.48483820  0.84149070  0.83146000  1
  C  C268  1  0.84149070  0.35665250  0.83146000  1
  C  C269  1  0.48483820  0.64334750  0.16854000  1
  H  H270  1  0.37130000  0.53620000  0.13350000  1
  H  H271  1  0.83510000  0.37130000  0.13350000  1
  H  H272  1  0.46380000  0.62870000  0.86650000  1
  H  H273  1  0.46380000  0.83510000  0.13350000  1
  H  H274  1  0.62870000  0.16490000  0.86650000  1
  H  H275  1  0.83510000  0.46380000  0.86650000  1
  H  H276  1  0.62870000  0.46380000  0.13350000  1
  H  H277  1  0.16490000  0.53620000  0.86650000  1
  H  H278  1  0.37130000  0.83510000  0.86650000  1
  H  H279  1  0.53620000  0.16490000  0.13350000  1
  H  H280  1  0.16490000  0.62870000  0.13350000  1
  H  H281  1  0.53620000  0.37130000  0.86650000  1
  H  H282  1  0.62870000  0.46380000  0.86650000  1
  H  H283  1  0.16490000  0.62870000  0.86650000  1
  H  H284  1  0.53620000  0.37130000  0.13350000  1
  H  H285  1  0.53620000  0.16490000  0.86650000  1
  H  H286  1  0.37130000  0.83510000  0.13350000  1
  H  H287  1  0.16490000  0.53620000  0.13350000  1
  H  H288  1  0.37130000  0.53620000  0.86650000  1
  H  H289  1  0.83510000  0.46380000  0.13350000  1
  H  H290  1  0.62870000  0.16490000  0.13350000  1
  H  H291  1  0.46380000  0.83510000  0.86650000  1
  H  H292  1  0.83510000  0.37130000  0.86650000  1
  H  H293  1  0.46380000  0.62870000  0.13350000  1
  C  C294  1  0.32273000  0.50902000  0.20645000  1
  C  C295  1  0.81371000  0.32273000  0.20645000  1
  C  C296  1  0.49098000  0.67727000  0.79355000  1
  C  C297  1  0.49098000  0.81371000  0.20645000  1
  C  C298  1  0.67727000  0.18629000  0.79355000  1
  C  C299  1  0.81371000  0.49098000  0.79355000  1
  C  C300  1  0.67727000  0.49098000  0.20645000  1
  C  C301  1  0.18629000  0.50902000  0.79355000  1
  C  C302  1  0.32273000  0.81371000  0.79355000  1
  C  C303  1  0.50902000  0.18629000  0.20645000  1
  C  C304  1  0.18629000  0.67727000  0.20645000  1
  C  C305  1  0.50902000  0.32273000  0.79355000  1
  C  C306  1  0.67727000  0.49098000  0.79355000  1
  C  C307  1  0.18629000  0.67727000  0.79355000  1
  C  C308  1  0.50902000  0.32273000  0.20645000  1
  C  C309  1  0.50902000  0.18629000  0.79355000  1
  C  C310  1  0.32273000  0.81371000  0.20645000  1
  C  C311  1  0.18629000  0.50902000  0.20645000  1
  C  C312  1  0.32273000  0.50902000  0.79355000  1
  C  C313  1  0.81371000  0.49098000  0.20645000  1
  C  C314  1  0.67727000  0.18629000  0.20645000  1
  C  C315  1  0.49098000  0.81371000  0.79355000  1
  C  C316  1  0.81371000  0.32273000  0.79355000  1
  C  C317  1  0.49098000  0.67727000  0.20645000  1
  H  H318  1  0.31320000  0.52470000  0.19110000  1
  H  H319  1  0.78850000  0.31320000  0.19110000  1
  H  H320  1  0.47530000  0.68680000  0.80890000  1
  H  H321  1  0.47530000  0.78850000  0.19110000  1
  H  H322  1  0.68680000  0.21150000  0.80890000  1
  H  H323  1  0.78850000  0.47530000  0.80890000  1
  H  H324  1  0.68680000  0.47530000  0.19110000  1
  H  H325  1  0.21150000  0.52470000  0.80890000  1
  H  H326  1  0.31320000  0.78850000  0.80890000  1
  H  H327  1  0.52470000  0.21150000  0.19110000  1
  H  H328  1  0.21150000  0.68680000  0.19110000  1
  H  H329  1  0.52470000  0.31320000  0.80890000  1
  H  H330  1  0.68680000  0.47530000  0.80890000  1
  H  H331  1  0.21150000  0.68680000  0.80890000  1
  H  H332  1  0.52470000  0.31320000  0.19110000  1
  H  H333  1  0.52470000  0.21150000  0.80890000  1
  H  H334  1  0.31320000  0.78850000  0.19110000  1
  H  H335  1  0.21150000  0.52470000  0.19110000  1
  H  H336  1  0.31320000  0.52470000  0.80890000  1
  H  H337  1  0.78850000  0.47530000  0.19110000  1
  H  H338  1  0.68680000  0.21150000  0.19110000  1
  H  H339  1  0.47530000  0.78850000  0.80890000  1
  H  H340  1  0.78850000  0.31320000  0.80890000  1
  H  H341  1  0.47530000  0.68680000  0.19110000  1
  C  C342  1  0.30293000  0.47952000  0.26714000  1
  C  C343  1  0.82341000  0.30293000  0.26714000  1
  C  C344  1  0.52048000  0.69707000  0.73286000  1
  C  C345  1  0.52048000  0.82341000  0.26714000  1
  C  C346  1  0.69707000  0.17659000  0.73286000  1
  C  C347  1  0.82341000  0.52048000  0.73286000  1
  C  C348  1  0.69707000  0.52048000  0.26714000  1
  C  C349  1  0.17659000  0.47952000  0.73286000  1
  C  C350  1  0.30293000  0.82341000  0.73286000  1
  C  C351  1  0.47952000  0.17659000  0.26714000  1
  C  C352  1  0.17659000  0.69707000  0.26714000  1
  C  C353  1  0.47952000  0.30293000  0.73286000  1
  C  C354  1  0.69707000  0.52048000  0.73286000  1
  C  C355  1  0.17659000  0.69707000  0.73286000  1
  C  C356  1  0.47952000  0.30293000  0.26714000  1
  C  C357  1  0.47952000  0.17659000  0.73286000  1
  C  C358  1  0.30293000  0.82341000  0.26714000  1
  C  C359  1  0.17659000  0.47952000  0.26714000  1
  C  C360  1  0.30293000  0.47952000  0.73286000  1
  C  C361  1  0.82341000  0.52048000  0.26714000  1
  C  C362  1  0.69707000  0.17659000  0.26714000  1
  C  C363  1  0.52048000  0.82341000  0.73286000  1
  C  C364  1  0.82341000  0.30293000  0.73286000  1
  C  C365  1  0.52048000  0.69707000  0.26714000  1
  C  C366  1  0.31557240  0.45569170  0.28664000  1
  C  C367  1  0.85988070  0.31557240  0.28664000  1
  C  C368  1  0.54430830  0.68442760  0.71336000  1
  C  C369  1  0.54430830  0.85988070  0.28664000  1
  C  C370  1  0.68442760  0.14011930  0.71336000  1
  C  C371  1  0.85988070  0.54430830  0.71336000  1
  C  C372  1  0.68442760  0.54430830  0.28664000  1
  C  C373  1  0.14011930  0.45569170  0.71336000  1
  C  C374  1  0.31557240  0.85988070  0.71336000  1
  C  C375  1  0.45569170  0.14011930  0.28664000  1
  C  C376  1  0.14011930  0.68442760  0.28664000  1
  C  C377  1  0.45569170  0.31557240  0.71336000  1
  C  C378  1  0.68442760  0.54430830  0.71336000  1
  C  C379  1  0.14011930  0.68442760  0.71336000  1
  C  C380  1  0.45569170  0.31557240  0.28664000  1
  C  C381  1  0.45569170  0.14011930  0.71336000  1
  C  C382  1  0.31557240  0.85988070  0.28664000  1
  C  C383  1  0.14011930  0.45569170  0.28664000  1
  C  C384  1  0.31557240  0.45569170  0.71336000  1
  C  C385  1  0.85988070  0.54430830  0.28664000  1
  C  C386  1  0.68442760  0.14011930  0.28664000  1
  C  C387  1  0.54430830  0.85988070  0.71336000  1
  C  C388  1  0.85988070  0.31557240  0.71336000  1
  C  C389  1  0.54430830  0.68442760  0.28664000  1
  H  H390  1  0.30220000  0.43620000  0.32670000  1
  H  H391  1  0.86600000  0.30220000  0.32670000  1
  H  H392  1  0.56380000  0.69780000  0.67330000  1
  H  H393  1  0.56380000  0.86600000  0.32670000  1
  H  H394  1  0.69780000  0.13400000  0.67330000  1
  H  H395  1  0.86600000  0.56380000  0.67330000  1
  H  H396  1  0.69780000  0.56380000  0.32670000  1
  H  H397  1  0.13400000  0.43620000  0.67330000  1
  H  H398  1  0.30220000  0.86600000  0.67330000  1
  H  H399  1  0.43620000  0.13400000  0.32670000  1
  H  H400  1  0.13400000  0.69780000  0.32670000  1
  H  H401  1  0.43620000  0.30220000  0.67330000  1
  H  H402  1  0.69780000  0.56380000  0.67330000  1
  H  H403  1  0.13400000  0.69780000  0.67330000  1
  H  H404  1  0.43620000  0.30220000  0.32670000  1
  H  H405  1  0.43620000  0.13400000  0.67330000  1
  H  H406  1  0.30220000  0.86600000  0.32670000  1
  H  H407  1  0.13400000  0.43620000  0.32670000  1
  H  H408  1  0.30220000  0.43620000  0.67330000  1
  H  H409  1  0.86600000  0.56380000  0.32670000  1
  H  H410  1  0.69780000  0.13400000  0.32670000  1
  H  H411  1  0.56380000  0.86600000  0.67330000  1
  H  H412  1  0.86600000  0.30220000  0.67330000  1
  H  H413  1  0.56380000  0.69780000  0.32670000  1
  C  C414  1  0.34767250  0.45953180  0.24864000  1
  C  C415  1  0.88814070  0.34767250  0.24864000  1
  C  C416  1  0.54046820  0.65232750  0.75136000  1
  C  C417  1  0.54046820  0.88814070  0.24864000  1
  C  C418  1  0.65232750  0.11185930  0.75136000  1
  C  C419  1  0.88814070  0.54046820  0.75136000  1
  C  C420  1  0.65232750  0.54046820  0.24864000  1
  C  C421  1  0.11185930  0.45953180  0.75136000  1
  C  C422  1  0.34767250  0.88814070  0.75136000  1
  C  C423  1  0.45953180  0.11185930  0.24864000  1
  C  C424  1  0.11185930  0.65232750  0.24864000  1
  C  C425  1  0.45953180  0.34767250  0.75136000  1
  C  C426  1  0.65232750  0.54046820  0.75136000  1
  C  C427  1  0.11185930  0.65232750  0.75136000  1
  C  C428  1  0.45953180  0.34767250  0.24864000  1
  C  C429  1  0.45953180  0.11185930  0.75136000  1
  C  C430  1  0.34767250  0.88814070  0.24864000  1
  C  C431  1  0.11185930  0.45953180  0.24864000  1
  C  C432  1  0.34767250  0.45953180  0.75136000  1
  C  C433  1  0.88814070  0.54046820  0.24864000  1
  C  C434  1  0.65232750  0.11185930  0.24864000  1
  C  C435  1  0.54046820  0.88814070  0.75136000  1
  C  C436  1  0.88814070  0.34767250  0.75136000  1
  C  C437  1  0.54046820  0.65232750  0.24864000  1
  H  H438  1  0.35610000  0.44310000  0.26510000  1
  H  H439  1  0.91300000  0.35610000  0.26510000  1
  H  H440  1  0.55690000  0.64390000  0.73490000  1
  H  H441  1  0.55690000  0.91300000  0.26510000  1
  H  H442  1  0.64390000  0.08700000  0.73490000  1
  H  H443  1  0.91300000  0.55690000  0.73490000  1
  H  H444  1  0.64390000  0.55690000  0.26510000  1
  H  H445  1  0.08700000  0.44310000  0.73490000  1
  H  H446  1  0.35610000  0.91300000  0.73490000  1
  H  H447  1  0.44310000  0.08700000  0.26510000  1
  H  H448  1  0.08700000  0.64390000  0.26510000  1
  H  H449  1  0.44310000  0.35610000  0.73490000  1
  H  H450  1  0.64390000  0.55690000  0.73490000  1
  H  H451  1  0.08700000  0.64390000  0.73490000  1
  H  H452  1  0.44310000  0.35610000  0.26510000  1
  H  H453  1  0.44310000  0.08700000  0.73490000  1
  H  H454  1  0.35610000  0.91300000  0.26510000  1
  H  H455  1  0.08700000  0.44310000  0.26510000  1
  H  H456  1  0.35610000  0.44310000  0.73490000  1
  H  H457  1  0.91300000  0.55690000  0.26510000  1
  H  H458  1  0.64390000  0.08700000  0.26510000  1
  H  H459  1  0.55690000  0.91300000  0.73490000  1
  H  H460  1  0.91300000  0.35610000  0.73490000  1
  H  H461  1  0.55690000  0.64390000  0.26510000  1
  C  C462  1  0.23780340  0.47563000  0.26346000  1
  C  C463  1  0.76217340  0.23780340  0.26346000  1
  C  C464  1  0.52437000  0.76219660  0.73654000  1
  C  C465  1  0.52437000  0.76217340  0.26346000  1
  C  C466  1  0.76219660  0.23782660  0.73654000  1
  C  C467  1  0.76217340  0.52437000  0.73654000  1
  C  C468  1  0.76219660  0.52437000  0.26346000  1
  C  C469  1  0.23782660  0.47563000  0.73654000  1
  C  C470  1  0.23780340  0.76217340  0.73654000  1
  C  C471  1  0.47563000  0.23782660  0.26346000  1
  C  C472  1  0.23782660  0.76219660  0.26346000  1
  C  C473  1  0.47563000  0.23780340  0.73654000  1
  C  C474  1  0.26958260  0.47952000  0.31204000  1
  C  C475  1  0.79006260  0.26958260  0.31204000  1
  C  C476  1  0.52048000  0.73041740  0.68796000  1
  C  C477  1  0.52048000  0.79006260  0.31204000  1
  C  C478  1  0.73041740  0.20993740  0.68796000  1
  C  C479  1  0.79006260  0.52048000  0.68796000  1
  C  C480  1  0.73041740  0.52048000  0.31204000  1
  C  C481  1  0.20993740  0.47952000  0.68796000  1
  C  C482  1  0.26958260  0.79006260  0.68796000  1
  C  C483  1  0.47952000  0.20993740  0.31204000  1
  C  C484  1  0.20993740  0.73041740  0.31204000  1
  C  C485  1  0.47952000  0.26958260  0.68796000  1
  C  C486  1  0.73041740  0.52048000  0.68796000  1
  C  C487  1  0.20993740  0.73041740  0.68796000  1
  C  C488  1  0.47952000  0.26958260  0.31204000  1
  C  C489  1  0.47952000  0.20993740  0.68796000  1
  C  C490  1  0.26958260  0.79006260  0.31204000  1
  C  C491  1  0.20993740  0.47952000  0.31204000  1
  C  C492  1  0.26958260  0.47952000  0.68796000  1
  C  C493  1  0.79006260  0.52048000  0.31204000  1
  C  C494  1  0.73041740  0.20993740  0.31204000  1
  C  C495  1  0.52048000  0.79006260  0.68796000  1
  C  C496  1  0.79006260  0.26958260  0.68796000  1
  C  C497  1  0.52048000  0.73041740  0.31204000  1
  C  C498  1  0.26932230  0.48274180  0.40254000  1
  C  C499  1  0.78658050  0.26932230  0.40254000  1
  C  C500  1  0.51725820  0.73067770  0.59746000  1
  C  C501  1  0.51725820  0.78658050  0.40254000  1
  C  C502  1  0.73067770  0.21341950  0.59746000  1
  C  C503  1  0.78658050  0.51725820  0.59746000  1
  C  C504  1  0.73067770  0.51725820  0.40254000  1
  C  C505  1  0.21341950  0.48274180  0.59746000  1
  C  C506  1  0.26932230  0.78658050  0.59746000  1
  C  C507  1  0.48274180  0.21341950  0.40254000  1
  C  C508  1  0.21341950  0.73067770  0.40254000  1
  C  C509  1  0.48274180  0.26932230  0.59746000  1
  C  C510  1  0.73067770  0.51725820  0.59746000  1
  C  C511  1  0.21341950  0.73067770  0.59746000  1
  C  C512  1  0.48274180  0.26932230  0.40254000  1
  C  C513  1  0.48274180  0.21341950  0.59746000  1
  C  C514  1  0.26932230  0.78658050  0.40254000  1
  C  C515  1  0.21341950  0.48274180  0.40254000  1
  C  C516  1  0.26932230  0.48274180  0.59746000  1
  C  C517  1  0.78658050  0.51725820  0.40254000  1
  C  C518  1  0.73067770  0.21341950  0.40254000  1
  C  C519  1  0.51725820  0.78658050  0.59746000  1
  C  C520  1  0.78658050  0.26932230  0.59746000  1
  C  C521  1  0.51725820  0.73067770  0.40254000  1
  H  H522  1  0.29060000  0.48660000  0.43350000  1
  H  H523  1  0.80400000  0.29060000  0.43350000  1
  H  H524  1  0.51340000  0.70940000  0.56650000  1
  H  H525  1  0.51340000  0.80400000  0.43350000  1
  H  H526  1  0.70940000  0.19600000  0.56650000  1
  H  H527  1  0.80400000  0.51340000  0.56650000  1
  H  H528  1  0.70940000  0.51340000  0.43350000  1
  H  H529  1  0.19600000  0.48660000  0.56650000  1
  H  H530  1  0.29060000  0.80400000  0.56650000  1
  H  H531  1  0.48660000  0.19600000  0.43350000  1
  H  H532  1  0.19600000  0.70940000  0.43350000  1
  H  H533  1  0.48660000  0.29060000  0.56650000  1
  H  H534  1  0.70940000  0.51340000  0.56650000  1
  H  H535  1  0.19600000  0.70940000  0.56650000  1
  H  H536  1  0.48660000  0.29060000  0.43350000  1
  H  H537  1  0.48660000  0.19600000  0.56650000  1
  H  H538  1  0.29060000  0.80400000  0.43350000  1
  H  H539  1  0.19600000  0.48660000  0.43350000  1
  H  H540  1  0.29060000  0.48660000  0.56650000  1
  H  H541  1  0.80400000  0.51340000  0.43350000  1
  H  H542  1  0.70940000  0.19600000  0.43350000  1
  H  H543  1  0.51340000  0.80400000  0.56650000  1
  H  H544  1  0.80400000  0.29060000  0.56650000  1
  H  H545  1  0.51340000  0.70940000  0.43350000  1
  C  C546  1  0.24037230  0.48072000  0.44965000  1
  C  C547  1  0.75965230  0.24037230  0.44965000  1
  C  C548  1  0.51928000  0.75962770  0.55035000  1
  C  C549  1  0.51928000  0.75965230  0.44965000  1
  C  C550  1  0.75962770  0.24034770  0.55035000  1
  C  C551  1  0.75965230  0.51928000  0.55035000  1
  C  C552  1  0.75962770  0.51928000  0.44965000  1
  C  C553  1  0.24034770  0.48072000  0.55035000  1
  C  C554  1  0.24037230  0.75965230  0.55035000  1
  C  C555  1  0.48072000  0.24034770  0.44965000  1
  C  C556  1  0.24034770  0.75962770  0.44965000  1
  C  C557  1  0.48072000  0.24037230  0.55035000  1
