# generated using pymatgen
data_Yb2H21C23S3NO15
_symmetry_space_group_name_H-M   'P 1'
_cell_length_a   17.32612000
_cell_length_b   11.49280000
_cell_length_c   17.32612000
_cell_angle_alpha   90.00000000
_cell_angle_beta   106.05000000
_cell_angle_gamma   90.00000000
_symmetry_Int_Tables_number   1
_chemical_formula_structural   Yb2H21C23S3NO15
_chemical_formula_sum   'Yb8 H84 C92 S12 N4 O60'
_cell_volume   3315.59341526
_cell_formula_units_Z   4
loop_
 _symmetry_equiv_pos_site_id
 _symmetry_equiv_pos_as_xyz
  1  'x, y, z'
loop_
 _atom_site_type_symbol
 _atom_site_label
 _atom_site_symmetry_multiplicity
 _atom_site_fract_x
 _atom_site_fract_y
 _atom_site_fract_z
 _atom_site_occupancy
  Yb  Yb0  1  0.08427300  0.39367400  0.99053700  1
  Yb  Yb1  1  0.41572700  0.89367400  0.50946300  1
  Yb  Yb2  1  0.91572700  0.60632600  0.00946300  1
  Yb  Yb3  1  0.58427300  0.10632600  0.49053700  1
  Yb  Yb4  1  0.10891300  0.94477600  0.48499300  1
  Yb  Yb5  1  0.39108700  0.44477600  0.01500700  1
  Yb  Yb6  1  0.89108700  0.05522400  0.51500700  1
  Yb  Yb7  1  0.60891300  0.55522400  0.98499300  1
  S  S8  1  0.02892000  0.21063000  0.24885190  1
  S  S9  1  0.47108000  0.71063000  0.25114810  1
  S  S10  1  0.97108000  0.78937000  0.75114810  1
  S  S11  1  0.52892000  0.28937000  0.74885190  1
  S  S12  1  0.09252180  0.28173000  0.75163820  1
  S  S13  1  0.40747820  0.78173000  0.74836180  1
  S  S14  1  0.90747820  0.71827000  0.24836180  1
  S  S15  1  0.59252180  0.21827000  0.25163820  1
  S  S16  1  0.12644190  0.77003000  0.23344190  1
  S  S17  1  0.37355810  0.27003000  0.26655810  1
  S  S18  1  0.87355810  0.22997000  0.76655810  1
  S  S19  1  0.62644190  0.72997000  0.73344190  1
  O  O20  1  0.05205000  0.28607000  0.09295000  1
  O  O21  1  0.44795000  0.78607000  0.40705000  1
  O  O22  1  0.94795000  0.71393000  0.90705000  1
  O  O23  1  0.55205000  0.21393000  0.59295000  1
  O  O24  1  0.99165000  0.45397000  0.08344000  1
  O  O25  1  0.50835000  0.95397000  0.41656000  1
  O  O26  1  0.00835000  0.54603000  0.91656000  1
  O  O27  1  0.49165000  0.04603000  0.58344000  1
  O  O28  1  0.04095000  0.08037000  0.39574000  1
  O  O29  1  0.45905000  0.58037000  0.10426000  1
  O  O30  1  0.95905000  0.91963000  0.60426000  1
  O  O31  1  0.54095000  0.41963000  0.89574000  1
  O  O32  1  0.94355000  0.17236000  0.43514000  1
  O  O33  1  0.55645000  0.67236000  0.06486000  1
  O  O34  1  0.05645000  0.82764000  0.56486000  1
  O  O35  1  0.44355000  0.32764000  0.93514000  1
  O  O36  1  0.98815000  0.16557000  0.60585000  1
  O  O37  1  0.51185000  0.66557000  0.89415000  1
  O  O38  1  0.01185000  0.83443000  0.39415000  1
  O  O39  1  0.48815000  0.33443000  0.10585000  1
  O  O40  1  0.08515000  0.07297000  0.57045000  1
  O  O41  1  0.41485000  0.57297000  0.92955000  1
  O  O42  1  0.91485000  0.92703000  0.42955000  1
  O  O43  1  0.58515000  0.42703000  0.07045000  1
  O  O44  1  0.15494000  0.42186000  0.90276000  1
  O  O45  1  0.34506000  0.92186000  0.59724000  1
  O  O46  1  0.84506000  0.57814000  0.09724000  1
  O  O47  1  0.65494000  0.07814000  0.40276000  1
  O  O48  1  0.28265000  0.37587000  0.91945000  1
  O  O49  1  0.21735000  0.87587000  0.58055000  1
  O  O50  1  0.71735000  0.62413000  0.08055000  1
  O  O51  1  0.78265000  0.12413000  0.41945000  1
  O  O52  1  0.13645000  0.56078000  0.05665000  1
  O  O53  1  0.36355000  0.06078000  0.44335000  1
  O  O54  1  0.86355000  0.43922000  0.94335000  1
  O  O55  1  0.63645000  0.93922000  0.55665000  1
  O  O56  1  0.03875000  0.67487000  0.07655000  1
  O  O57  1  0.46125000  0.17487000  0.42345000  1
  O  O58  1  0.96125000  0.32513000  0.92345000  1
  O  O59  1  0.53875000  0.82513000  0.57655000  1
  O  O60  1  0.29615000  0.84528000  0.42695000  1
  O  O61  1  0.20385000  0.34528000  0.07305000  1
  O  O62  1  0.70385000  0.15472000  0.57305000  1
  O  O63  1  0.79615000  0.65472000  0.92695000  1
  O  O64  1  0.16775000  0.87218000  0.39665000  1
  O  O65  1  0.33225000  0.37218000  0.10335000  1
  O  O66  1  0.83225000  0.12782000  0.60335000  1
  O  O67  1  0.66775000  0.62782000  0.89665000  1
  C  C68  1  0.01218000  0.35671100  0.11787000  1
  C  C69  1  0.48782000  0.85671100  0.38213000  1
  C  C70  1  0.98782000  0.64328900  0.88213000  1
  C  C71  1  0.51218000  0.14328900  0.61787000  1
  C  C72  1  0.99023000  0.33141000  0.19377000  1
  C  C73  1  0.50977000  0.83141000  0.30623000  1
  C  C74  1  0.00977000  0.66859000  0.80623000  1
  C  C75  1  0.49023000  0.16859000  0.69377000  1
  C  C76  1  0.94423000  0.39281100  0.23187000  1
  C  C77  1  0.55577000  0.89281100  0.26813000  1
  C  C78  1  0.05577000  0.60718900  0.76813000  1
  C  C79  1  0.44423000  0.10718900  0.73187000  1
  H  H80  1  0.91910000  0.46260000  0.21240000  1
  H  H81  1  0.58090000  0.96260000  0.28760000  1
  H  H82  1  0.08090000  0.53740000  0.78760000  1
  H  H83  1  0.41910000  0.03740000  0.71240000  1
  C  C84  1  0.93842000  0.33931000  0.30467000  1
  C  C85  1  0.56158000  0.83931000  0.19533000  1
  C  C86  1  0.06158000  0.66069000  0.69533000  1
  C  C87  1  0.43842000  0.16069000  0.80467000  1
  H  H88  1  0.90860000  0.36940000  0.33710000  1
  H  H89  1  0.59140000  0.86940000  0.16290000  1
  H  H90  1  0.09140000  0.63060000  0.66290000  1
  H  H91  1  0.40860000  0.13060000  0.83710000  1
  C  C92  1  0.98143000  0.23961000  0.32056000  1
  C  C93  1  0.51857000  0.73961000  0.17944000  1
  C  C94  1  0.01857000  0.76039000  0.67944000  1
  C  C95  1  0.48143000  0.26039000  0.82056000  1
  C  C96  1  0.98843000  0.15871000  0.39077000  1
  C  C97  1  0.51157000  0.65871000  0.10923000  1
  C  C98  1  0.01157000  0.84129000  0.60923000  1
  C  C99  1  0.48843000  0.34129000  0.89077000  1
  C  C100  1  0.06027000  0.14161000  0.61294000  1
  C  C101  1  0.43973000  0.64161000  0.88706000  1
  C  C102  1  0.93973000  0.85839000  0.38706000  1
  C  C103  1  0.56027000  0.35839000  0.11294000  1
  C  C104  1  0.12037000  0.20131000  0.68153000  1
  C  C105  1  0.37963000  0.70131000  0.81847000  1
  C  C106  1  0.87963000  0.79869000  0.31847000  1
  C  C107  1  0.62037000  0.29869000  0.18153000  1
  C  C108  1  0.20049000  0.19771300  0.69561000  1
  C  C109  1  0.29951000  0.69771300  0.80439000  1
  C  C110  1  0.79951000  0.80228700  0.30439000  1
  C  C111  1  0.70049000  0.30228700  0.19561000  1
  H  H112  1  0.22640000  0.15830000  0.66330000  1
  H  H113  1  0.27360000  0.65830000  0.83670000  1
  H  H114  1  0.77360000  0.84170000  0.33670000  1
  H  H115  1  0.72640000  0.34170000  0.16330000  1
  C  C116  1  0.24168000  0.26141400  0.76632000  1
  C  C117  1  0.25832000  0.76141400  0.73368000  1
  C  C118  1  0.75832000  0.73858600  0.23368000  1
  C  C119  1  0.74168000  0.23858600  0.26632000  1
  H  H120  1  0.29700000  0.27080000  0.78390000  1
  H  H121  1  0.20300000  0.77080000  0.71610000  1
  H  H122  1  0.70300000  0.72920000  0.21610000  1
  H  H123  1  0.79700000  0.22920000  0.28390000  1
  C  C136  1  0.18937000  0.30661000  0.80493000  1
  C  C137  1  0.31063000  0.80661000  0.69507000  1
  C  C138  1  0.81063000  0.69339000  0.19507000  1
  C  C139  1  0.68937000  0.19339000  0.30493000  1
  C  C140  1  0.21117000  0.37181000  0.88063000  1
  C  C141  1  0.28883000  0.87181000  0.61937000  1
  C  C142  1  0.78883000  0.62819000  0.11937000  1
  C  C143  1  0.71117000  0.12819000  0.38063000  1
  C  C144  1  0.10998000  0.63851100  0.09537000  1
  C  C145  1  0.39002000  0.13851100  0.40463000  1
  C  C146  1  0.89002000  0.36148900  0.90463000  1
  C  C147  1  0.60998000  0.86148900  0.59537000  1
  C  C148  1  0.16437000  0.68371100  0.17087000  1
  C  C149  1  0.33563000  0.18371100  0.32913000  1
  C  C150  1  0.83563000  0.31628900  0.82913000  1
  C  C151  1  0.66437000  0.81628900  0.67087000  1
  C  C152  1  0.24249000  0.66481300  0.20059000  1
  C  C153  1  0.25751000  0.16481300  0.29941000  1
  C  C154  1  0.75751000  0.33518700  0.79941000  1
  C  C155  1  0.74249000  0.83518700  0.70059000  1
  H  H156  1  0.27330000  0.62150000  0.17470000  1
  H  H157  1  0.22670000  0.12150000  0.32530000  1
  H  H158  1  0.72670000  0.37850000  0.82530000  1
  H  H159  1  0.77330000  0.87850000  0.67470000  1
  C  C160  1  0.27308000  0.71891200  0.27669000  1
  C  C161  1  0.22692000  0.21891200  0.22331000  1
  C  C162  1  0.72692000  0.28108800  0.72331000  1
  C  C163  1  0.77308000  0.78108800  0.77669000  1
  H  H164  1  0.32650000  0.71280000  0.30630000  1
  H  H165  1  0.17350000  0.21280000  0.19370000  1
  H  H166  1  0.67350000  0.28720000  0.69370000  1
  H  H167  1  0.82650000  0.78720000  0.80630000  1
  C  C168  1  0.21867000  0.77971100  0.30217000  1
  C  C169  1  0.28133000  0.27971100  0.19783000  1
  C  C170  1  0.78133000  0.22028900  0.69783000  1
  C  C171  1  0.71867000  0.72028900  0.80217000  1
  C  C172  1  0.22857000  0.83791100  0.37978000  1
  C  C173  1  0.27143000  0.33791100  0.12022000  1
  C  C174  1  0.77143000  0.16208900  0.62022000  1
  C  C175  1  0.72857000  0.66208900  0.87978000  1
