# generated using pymatgen
data_Zr3H12C24(NO4)4
_symmetry_space_group_name_H-M   'P 1'
_cell_length_a   21.19050000
_cell_length_b   21.19050000
_cell_length_c   18.91050000
_cell_angle_alpha   90.00000000
_cell_angle_beta   90.00000000
_cell_angle_gamma   90.00000000
_symmetry_Int_Tables_number   1
_chemical_formula_structural   Zr3H12C24(NO4)4
_chemical_formula_sum   'Zr12 H48 C96 N16 O64'
_cell_volume   8491.51967727
_cell_formula_units_Z   4
loop_
 _symmetry_equiv_pos_site_id
 _symmetry_equiv_pos_as_xyz
  1  'x, y, z'
loop_
 _atom_site_type_symbol
 _atom_site_label
 _atom_site_symmetry_multiplicity
 _atom_site_fract_x
 _atom_site_fract_y
 _atom_site_fract_z
 _atom_site_occupancy
  Zr  Zr0  1  0.00000000  0.00000000  0.12976500  1
  Zr  Zr1  1  0.00000000  0.00000000  0.87023500  1
  Zr  Zr2  1  0.50000000  0.50000000  0.62976500  1
  Zr  Zr3  1  0.50000000  0.50000000  0.37023500  1
  O  O4  1  0.93413830  0.93413830  0.19043000  1
  O  O5  1  0.06586170  0.06586170  0.19043000  1
  O  O6  1  0.93413830  0.06586170  0.80957000  1
  O  O7  1  0.06586170  0.93413830  0.80957000  1
  O  O8  1  0.06586170  0.06586170  0.80957000  1
  O  O9  1  0.93413830  0.93413830  0.80957000  1
  O  O10  1  0.93413830  0.06586170  0.19043000  1
  O  O11  1  0.06586170  0.93413830  0.19043000  1
  O  O12  1  0.43413830  0.43413830  0.69043000  1
  O  O13  1  0.56586170  0.56586170  0.69043000  1
  O  O14  1  0.43413830  0.56586170  0.30957000  1
  O  O15  1  0.56586170  0.43413830  0.30957000  1
  O  O16  1  0.56586170  0.56586170  0.30957000  1
  O  O17  1  0.43413830  0.43413830  0.30957000  1
  O  O18  1  0.43413830  0.56586170  0.69043000  1
  O  O19  1  0.56586170  0.43413830  0.69043000  1
  O  O20  1  0.00000000  0.91356000  0.06243000  1
  O  O21  1  0.00000000  0.08644000  0.06243000  1
  O  O22  1  0.00000000  0.08644000  0.93757000  1
  O  O23  1  0.00000000  0.91356000  0.93757000  1
  O  O24  1  0.08644000  0.00000000  0.93757000  1
  O  O25  1  0.91356000  0.00000000  0.93757000  1
  O  O26  1  0.91356000  0.00000000  0.06243000  1
  O  O27  1  0.08644000  0.00000000  0.06243000  1
  O  O28  1  0.50000000  0.41356000  0.56243000  1
  O  O29  1  0.50000000  0.58644000  0.56243000  1
  O  O30  1  0.50000000  0.58644000  0.43757000  1
  O  O31  1  0.50000000  0.41356000  0.43757000  1
  O  O32  1  0.58644000  0.50000000  0.43757000  1
  O  O33  1  0.41356000  0.50000000  0.43757000  1
  O  O34  1  0.41356000  0.50000000  0.56243000  1
  O  O35  1  0.58644000  0.50000000  0.56243000  1
  C  C36  1  0.89277000  0.89277000  0.16985000  1
  C  C37  1  0.10723000  0.10723000  0.16985000  1
  C  C38  1  0.89277000  0.10723000  0.83015000  1
  C  C39  1  0.10723000  0.89277000  0.83015000  1
  C  C40  1  0.10723000  0.10723000  0.83015000  1
  C  C41  1  0.89277000  0.89277000  0.83015000  1
  C  C42  1  0.89277000  0.10723000  0.16985000  1
  C  C43  1  0.10723000  0.89277000  0.16985000  1
  C  C44  1  0.39277000  0.39277000  0.66985000  1
  C  C45  1  0.60723000  0.60723000  0.66985000  1
  C  C46  1  0.39277000  0.60723000  0.33015000  1
  C  C47  1  0.60723000  0.39277000  0.33015000  1
  C  C48  1  0.60723000  0.60723000  0.33015000  1
  C  C49  1  0.39277000  0.39277000  0.33015000  1
  C  C50  1  0.39277000  0.60723000  0.66985000  1
  C  C51  1  0.60723000  0.39277000  0.66985000  1
  C  C52  1  0.85576000  0.85576000  0.22455000  1
  C  C53  1  0.14424000  0.14424000  0.22455000  1
  C  C54  1  0.85576000  0.14424000  0.77545000  1
  C  C55  1  0.14424000  0.85576000  0.77545000  1
  C  C56  1  0.14424000  0.14424000  0.77545000  1
  C  C57  1  0.85576000  0.85576000  0.77545000  1
  C  C58  1  0.85576000  0.14424000  0.22455000  1
  C  C59  1  0.14424000  0.85576000  0.22455000  1
  C  C60  1  0.35576000  0.35576000  0.72455000  1
  C  C61  1  0.64424000  0.64424000  0.72455000  1
  C  C62  1  0.35576000  0.64424000  0.27545000  1
  C  C63  1  0.64424000  0.35576000  0.27545000  1
  C  C64  1  0.64424000  0.64424000  0.27545000  1
  C  C65  1  0.35576000  0.35576000  0.27545000  1
  C  C66  1  0.35576000  0.64424000  0.72455000  1
  C  C67  1  0.64424000  0.35576000  0.72455000  1
  N  N68  1  0.78666000  0.78666000  0.32715000  1
  N  N69  1  0.21334000  0.21334000  0.32715000  1
  N  N70  1  0.78666000  0.21334000  0.67285000  1
  N  N71  1  0.21334000  0.78666000  0.67285000  1
  N  N72  1  0.21334000  0.21334000  0.67285000  1
  N  N73  1  0.78666000  0.78666000  0.67285000  1
  N  N74  1  0.78666000  0.21334000  0.32715000  1
  N  N75  1  0.21334000  0.78666000  0.32715000  1
  N  N76  1  0.28666000  0.28666000  0.82715000  1
  N  N77  1  0.71334000  0.71334000  0.82715000  1
  N  N78  1  0.28666000  0.71334000  0.17285000  1
  N  N79  1  0.71334000  0.28666000  0.17285000  1
  N  N80  1  0.71334000  0.71334000  0.17285000  1
  N  N81  1  0.28666000  0.28666000  0.17285000  1
  N  N82  1  0.28666000  0.71334000  0.82715000  1
  N  N83  1  0.71334000  0.28666000  0.82715000  1
  C  C84  1  0.80886000  0.80886000  0.20755000  1
  C  C85  1  0.19114000  0.19114000  0.20755000  1
  C  C86  1  0.80886000  0.19114000  0.79245000  1
  C  C87  1  0.19114000  0.80886000  0.79245000  1
  C  C88  1  0.19114000  0.19114000  0.79245000  1
  C  C89  1  0.80886000  0.80886000  0.79245000  1
  C  C90  1  0.80886000  0.19114000  0.20755000  1
  C  C91  1  0.19114000  0.80886000  0.20755000  1
  C  C92  1  0.30886000  0.30886000  0.70755000  1
  C  C93  1  0.69114000  0.69114000  0.70755000  1
  C  C94  1  0.30886000  0.69114000  0.29245000  1
  C  C95  1  0.69114000  0.30886000  0.29245000  1
  C  C96  1  0.69114000  0.69114000  0.29245000  1
  C  C97  1  0.30886000  0.30886000  0.29245000  1
  C  C98  1  0.30886000  0.69114000  0.70755000  1
  C  C99  1  0.69114000  0.30886000  0.70755000  1
  H  H100  1  0.80070000  0.80070000  0.16005000  1
  H  H101  1  0.19930000  0.19930000  0.16005000  1
  H  H102  1  0.80070000  0.19930000  0.83995000  1
  H  H103  1  0.19930000  0.80070000  0.83995000  1
  H  H104  1  0.19930000  0.19930000  0.83995000  1
  H  H105  1  0.80070000  0.80070000  0.83995000  1
  H  H106  1  0.80070000  0.19930000  0.16005000  1
  H  H107  1  0.19930000  0.80070000  0.16005000  1
  H  H108  1  0.30070000  0.30070000  0.66005000  1
  H  H109  1  0.69930000  0.69930000  0.66005000  1
  H  H110  1  0.30070000  0.69930000  0.33995000  1
  H  H111  1  0.69930000  0.30070000  0.33995000  1
  H  H112  1  0.69930000  0.69930000  0.33995000  1
  H  H113  1  0.30070000  0.30070000  0.33995000  1
  H  H114  1  0.30070000  0.69930000  0.66005000  1
  H  H115  1  0.69930000  0.30070000  0.66005000  1
  C  C116  1  0.86836000  0.86836000  0.29766000  1
  C  C117  1  0.13164000  0.13164000  0.29766000  1
  C  C118  1  0.86836000  0.13164000  0.70234000  1
  C  C119  1  0.13164000  0.86836000  0.70234000  1
  C  C120  1  0.13164000  0.13164000  0.70234000  1
  C  C121  1  0.86836000  0.86836000  0.70234000  1
  C  C122  1  0.86836000  0.13164000  0.29766000  1
  C  C123  1  0.13164000  0.86836000  0.29766000  1
  C  C124  1  0.36836000  0.36836000  0.79766000  1
  C  C125  1  0.63164000  0.63164000  0.79766000  1
  C  C126  1  0.36836000  0.63164000  0.20234000  1
  C  C127  1  0.63164000  0.36836000  0.20234000  1
  C  C128  1  0.63164000  0.63164000  0.20234000  1
  C  C129  1  0.36836000  0.36836000  0.20234000  1
  C  C130  1  0.36836000  0.63164000  0.79766000  1
  C  C131  1  0.63164000  0.36836000  0.79766000  1
  H  H132  1  0.89783000  0.89783000  0.31335000  1
  H  H133  1  0.10217000  0.10217000  0.31335000  1
  H  H134  1  0.89783000  0.10217000  0.68665000  1
  H  H135  1  0.10217000  0.89783000  0.68665000  1
  H  H136  1  0.10217000  0.10217000  0.68665000  1
  H  H137  1  0.89783000  0.89783000  0.68665000  1
  H  H138  1  0.89783000  0.10217000  0.31335000  1
  H  H139  1  0.10217000  0.89783000  0.31335000  1
  H  H140  1  0.39783000  0.39783000  0.81335000  1
  H  H141  1  0.60217000  0.60217000  0.81335000  1
  H  H142  1  0.39783000  0.60217000  0.18665000  1
  H  H143  1  0.60217000  0.39783000  0.18665000  1
  H  H144  1  0.60217000  0.60217000  0.18665000  1
  H  H145  1  0.39783000  0.39783000  0.18665000  1
  H  H146  1  0.39783000  0.60217000  0.81335000  1
  H  H147  1  0.60217000  0.39783000  0.81335000  1
  C  C148  1  0.83065000  0.83065000  0.34326000  1
  C  C149  1  0.16935000  0.16935000  0.34326000  1
  C  C150  1  0.83065000  0.16935000  0.65674000  1
  C  C151  1  0.16935000  0.83065000  0.65674000  1
  C  C152  1  0.16935000  0.16935000  0.65674000  1
  C  C153  1  0.83065000  0.83065000  0.65674000  1
  C  C154  1  0.83065000  0.16935000  0.34326000  1
  C  C155  1  0.16935000  0.83065000  0.34326000  1
  C  C156  1  0.33065000  0.33065000  0.84326000  1
  C  C157  1  0.66935000  0.66935000  0.84326000  1
  C  C158  1  0.33065000  0.66935000  0.15674000  1
  C  C159  1  0.66935000  0.33065000  0.15674000  1
  C  C160  1  0.66935000  0.66935000  0.15674000  1
  C  C161  1  0.33065000  0.33065000  0.15674000  1
  C  C162  1  0.33065000  0.66935000  0.84326000  1
  C  C163  1  0.66935000  0.33065000  0.84326000  1
  H  H164  1  0.83730000  0.83730000  0.39129000  1
  H  H165  1  0.16270000  0.16270000  0.39129000  1
  H  H166  1  0.83730000  0.16270000  0.60871000  1
  H  H167  1  0.16270000  0.83730000  0.60871000  1
  H  H168  1  0.16270000  0.16270000  0.60871000  1
  H  H169  1  0.83730000  0.83730000  0.60871000  1
  H  H170  1  0.83730000  0.16270000  0.39129000  1
  H  H171  1  0.16270000  0.83730000  0.39129000  1
  H  H172  1  0.33730000  0.33730000  0.89129000  1
  H  H173  1  0.66270000  0.66270000  0.89129000  1
  H  H174  1  0.33730000  0.66270000  0.10871000  1
  H  H175  1  0.66270000  0.33730000  0.10871000  1
  H  H176  1  0.66270000  0.66270000  0.10871000  1
  H  H177  1  0.33730000  0.33730000  0.10871000  1
  H  H178  1  0.33730000  0.66270000  0.89129000  1
  H  H179  1  0.66270000  0.33730000  0.89129000  1
  C  C180  1  0.77486000  0.77486000  0.25907000  1
  C  C181  1  0.22514000  0.22514000  0.25907000  1
  C  C182  1  0.77486000  0.22514000  0.74093000  1
  C  C183  1  0.22514000  0.77486000  0.74093000  1
  C  C184  1  0.22514000  0.22514000  0.74093000  1
  C  C185  1  0.77486000  0.77486000  0.74093000  1
  C  C186  1  0.77486000  0.22514000  0.25907000  1
  C  C187  1  0.22514000  0.77486000  0.25907000  1
  C  C188  1  0.27486000  0.27486000  0.75907000  1
  C  C189  1  0.72514000  0.72514000  0.75907000  1
  C  C190  1  0.27486000  0.72514000  0.24093000  1
  C  C191  1  0.72514000  0.27486000  0.24093000  1
  C  C192  1  0.72514000  0.72514000  0.24093000  1
  C  C193  1  0.27486000  0.27486000  0.24093000  1
  C  C194  1  0.27486000  0.72514000  0.75907000  1
  C  C195  1  0.72514000  0.27486000  0.75907000  1
  O  O196  1  0.87758000  0.87758000  0.10663000  1
  O  O197  1  0.12242000  0.12242000  0.10663000  1
  O  O198  1  0.87758000  0.12242000  0.89337000  1
  O  O199  1  0.12242000  0.87758000  0.89337000  1
  O  O200  1  0.12242000  0.12242000  0.89337000  1
  O  O201  1  0.87758000  0.87758000  0.89337000  1
  O  O202  1  0.87758000  0.12242000  0.10663000  1
  O  O203  1  0.12242000  0.87758000  0.10663000  1
  O  O204  1  0.37758000  0.37758000  0.60663000  1
  O  O205  1  0.62242000  0.62242000  0.60663000  1
  O  O206  1  0.37758000  0.62242000  0.39337000  1
  O  O207  1  0.62242000  0.37758000  0.39337000  1
  O  O208  1  0.62242000  0.62242000  0.39337000  1
  O  O209  1  0.37758000  0.37758000  0.39337000  1
  O  O210  1  0.37758000  0.62242000  0.60663000  1
  O  O211  1  0.62242000  0.37758000  0.60663000  1
  Zr  Zr212  1  0.91253700  0.91253700  0.00000000  1
  Zr  Zr213  1  0.08746300  0.08746300  0.00000000  1
  Zr  Zr214  1  0.91253700  0.08746300  0.00000000  1
  Zr  Zr215  1  0.08746300  0.91253700  0.00000000  1
  Zr  Zr216  1  0.41253700  0.41253700  0.50000000  1
  Zr  Zr217  1  0.58746300  0.58746300  0.50000000  1
  Zr  Zr218  1  0.41253700  0.58746300  0.50000000  1
  Zr  Zr219  1  0.58746300  0.41253700  0.50000000  1
