# generated using pymatgen
data_LiZnH14C20Br4NO9
_symmetry_space_group_name_H-M   'P 1'
_cell_length_a   9.67550000
_cell_length_b   12.34630000
_cell_length_c   12.52320000
_cell_angle_alpha   80.89716000
_cell_angle_beta   71.84716000
_cell_angle_gamma   70.27816000
_symmetry_Int_Tables_number   1
_chemical_formula_structural   LiZnH14C20Br4NO9
_chemical_formula_sum   'Li2 Zn2 H28 C40 Br8 N2 O18'
_cell_volume   1335.78143641
_cell_formula_units_Z   2
loop_
 _symmetry_equiv_pos_site_id
 _symmetry_equiv_pos_as_xyz
  1  'x, y, z'
loop_
 _atom_site_type_symbol
 _atom_site_label
 _atom_site_symmetry_multiplicity
 _atom_site_fract_x
 _atom_site_fract_y
 _atom_site_fract_z
 _atom_site_occupancy
  Zn  Zn0  1  0.59090700  0.27199600  0.27011500  1
  Zn  Zn1  1  0.40909300  0.72800400  0.72988500  1
  Li  Li2  1  0.42311200  0.44511000  0.08759000  1
  Li  Li3  1  0.57688800  0.55489000  0.91241000  1
  O  O4  1  0.44856000  0.28834000  0.08144000  1
  O  O5  1  0.55144000  0.71166000  0.91856000  1
  O  O6  1  0.58175000  0.15464000  0.18324000  1
  O  O7  1  0.41825000  0.84536000  0.81676000  1
  C  C8  1  0.51237000  0.18715000  0.10725000  1
  C  C9  1  0.48763000  0.81285000  0.89275000  1
  C  C10  1  0.50667000  0.09176000  0.05016000  1
  C  C11  1  0.49333000  0.90824000  0.94984000  1
  C  C12  1  0.47057000  0.00000000  0.11486000  1
  C  C13  1  0.52943000  0.00106000  0.88514000  1
  H  H14  1  0.45025000  0.00000000  0.19419000  1
  H  H15  1  0.54975000  0.00267000  0.80581000  1
  C  C16  1  0.53708000  0.09266000  0.93294000  1
  C  C17  1  0.46292000  0.90734000  0.06706000  1
  Br  Br18  1  0.59068110  0.21380700  0.83391400  1
  Br  Br19  1  0.40931890  0.78619300  0.16608600  1
  O  O20  1  0.39185000  0.35394000  0.36254000  1
  O  O21  1  0.60815000  0.64606000  0.63746000  1
  O  O22  1  0.30366000  0.48605000  0.23454000  1
  O  O23  1  0.69634000  0.51395000  0.76546000  1
  C  C24  1  0.29087000  0.43675000  0.32855000  1
  C  C25  1  0.70913000  0.56325000  0.67145000  1
  C  C26  1  0.13967000  0.47185000  0.41745000  1
  C  C27  1  0.86033000  0.52815000  0.58255000  1
  C  C28  1  0.02177000  0.43546000  0.41195000  1
  C  C29  1  0.97823000  0.56454000  0.58805000  1
  H  H30  1  0.03572000  0.39205000  0.35097000  1
  H  H31  1  0.96428000  0.60795000  0.64903000  1
  C  C32  1  0.11647000  0.53836000  0.50565000  1
  C  C33  1  0.88353000  0.46164000  0.49435000  1
  Br  Br34  1  0.27686800  0.58736700  0.51557700  1
  Br  Br35  1  0.72313200  0.41263300  0.48442300  1
  O  O36  1  0.73685000  0.16824000  0.34504000  1
  O  O37  1  0.26315000  0.83176000  0.65496000  1
  O  O38  1  0.58685000  0.12545000  0.50964000  1
  O  O39  1  0.41315000  0.87455000  0.49036000  1
  H  H40  1  0.51870000  0.11480000  0.56740000  1
  H  H41  1  0.48130000  0.88520000  0.43260000  1
  C  C42  1  0.71137000  0.12025000  0.44355000  1
  C  C43  1  0.28863000  0.87975000  0.55645000  1
  C  C44  1  0.85837000  0.05475000  0.47465000  1
  C  C45  1  0.14163000  0.94525000  0.52535000  1
  C  C46  1  0.88417000  0.95145000  0.54045000  1
  C  C47  1  0.11583000  0.04855000  0.45955000  1
  C  C48  1  0.02167000  0.89865000  0.56585000  1
  C  C49  1  0.97833000  0.10135000  0.43415000  1
  H  H50  1  0.03427000  0.82912000  0.61187000  1
  H  H51  1  0.96573000  0.17088000  0.38813000  1
  Br  Br52  1  0.73484700  0.87145400  0.59386600  1
  Br  Br53  1  0.26515300  0.12854600  0.40613400  1
  O  O54  1  0.37265000  0.53754000  0.95836000  1
  O  O55  1  0.62735000  0.46246000  0.04164000  1
  O  O56  1  0.27985000  0.63494000  0.81516000  1
  O  O57  1  0.72015000  0.36506000  0.18484000  1
  C  C58  1  0.27147000  0.57365000  0.90605000  1
  C  C59  1  0.72853000  0.42635000  0.09395000  1
  C  C60  1  0.12707000  0.53986000  0.95465000  1
  C  C61  1  0.87293000  0.46014000  0.04535000  1
  C  C62  1  0.98183000  0.61256000  0.95785000  1
  C  C63  1  0.01817000  0.38744000  0.04215000  1
  C  C64  1  0.85533000  0.57416000  0.00325000  1
  C  C65  1  0.14467000  0.42584000  0.00000000  1
  H  H66  1  0.75626000  0.62563000  0.00552000  1
  H  H67  1  0.24374000  0.37437000  0.99448000  1
  Br  Br68  1  0.94257200  0.77131600  0.90824300  1
  Br  Br69  1  0.05742800  0.22868400  0.09175700  1
