# generated using pymatgen
data_NdH8C7N2O9
_symmetry_space_group_name_H-M   'P 1'
_cell_length_a   6.87003000
_cell_length_b   16.68406000
_cell_length_c   9.70303000
_cell_angle_alpha   90.00000000
_cell_angle_beta   100.28940000
_cell_angle_gamma   90.00000000
_symmetry_Int_Tables_number   1
_chemical_formula_structural   NdH8C7N2O9
_chemical_formula_sum   'Nd4 H32 C28 N8 O36'
_cell_volume   1094.27556275
_cell_formula_units_Z   4
loop_
 _symmetry_equiv_pos_site_id
 _symmetry_equiv_pos_as_xyz
  1  'x, y, z'
loop_
 _atom_site_type_symbol
 _atom_site_label
 _atom_site_symmetry_multiplicity
 _atom_site_fract_x
 _atom_site_fract_y
 _atom_site_fract_z
 _atom_site_occupancy
  Nd  Nd0  1  0.72837300  0.14433200  0.17045200  1
  Nd  Nd1  1  0.77162700  0.64433200  0.32954800  1
  Nd  Nd2  1  0.27162700  0.85566800  0.82954800  1
  Nd  Nd3  1  0.22837300  0.35566800  0.67045200  1
  N  N4  1  0.56405000  0.15734190  0.40653000  1
  N  N5  1  0.93595000  0.65734190  0.09347000  1
  N  N6  1  0.43595000  0.84265810  0.59347000  1
  N  N7  1  0.06405000  0.34265810  0.90653000  1
  C  C8  1  0.46716000  0.21992000  0.44684000  1
  C  C9  1  0.03284000  0.71992000  0.05316000  1
  C  C10  1  0.53284000  0.78008000  0.55316000  1
  C  C11  1  0.96716000  0.28008000  0.94684000  1
  H  H12  1  0.41399000  0.25637000  0.37774000  1
  H  H13  1  0.08601000  0.75637000  0.12226000  1
  H  H14  1  0.58601000  0.74363000  0.62226000  1
  H  H15  1  0.91399000  0.24363000  0.87774000  1
  N  N16  1  0.43915000  0.23531190  0.57733000  1
  N  N17  1  0.06085000  0.73531190  0.92267000  1
  N  N18  1  0.56085000  0.76468810  0.42267000  1
  N  N19  1  0.93915000  0.26468810  0.07733000  1
  C  C20  1  0.51876000  0.18252000  0.67604000  1
  C  C21  1  0.98124000  0.68252000  0.82396000  1
  C  C22  1  0.48124000  0.81748000  0.32396000  1
  C  C23  1  0.01876000  0.31748000  0.17604000  1
  C  C24  1  0.61266000  0.11402000  0.64394000  1
  C  C25  1  0.88734000  0.61402000  0.85606000  1
  C  C26  1  0.38734000  0.88598000  0.35606000  1
  C  C27  1  0.11266000  0.38598000  0.14394000  1
  H  H28  1  0.66104000  0.07653000  0.71242000  1
  H  H29  1  0.83896000  0.57653000  0.78758000  1
  H  H30  1  0.33896000  0.92347000  0.28758000  1
  H  H31  1  0.16104000  0.42347000  0.21242000  1
  C  C32  1  0.63246000  0.10292000  0.50574000  1
  C  C33  1  0.86754000  0.60292000  0.99426000  1
  C  C34  1  0.36754000  0.89708000  0.49426000  1
  C  C35  1  0.13246000  0.39708000  0.00574000  1
  C  C36  1  0.73306000  0.03002000  0.45874000  1
  C  C37  1  0.76694000  0.53002000  0.04126000  1
  C  C38  1  0.26694000  0.96998000  0.54126000  1
  C  C39  1  0.23306000  0.46998000  0.95874000  1
  O  O40  1  0.77594000  0.03600190  0.33692000  1
  O  O41  1  0.72406000  0.53600190  0.16308000  1
  O  O42  1  0.22406000  0.96399810  0.66308000  1
  O  O43  1  0.27594000  0.46399810  0.83692000  1
  O  O44  1  0.76654000  0.97249840  0.53813000  1
  O  O45  1  0.73346000  0.47249840  0.96187000  1
  O  O46  1  0.23346000  0.02750160  0.46187000  1
  O  O47  1  0.26654000  0.52750160  0.03813000  1
  C  C48  1  0.50806000  0.20372000  0.82544000  1
  C  C49  1  0.99194000  0.70372000  0.67456000  1
  C  C50  1  0.49194000  0.79628000  0.17456000  1
  C  C51  1  0.00806000  0.29628000  0.32544000  1
  O  O52  1  0.39324000  0.25932160  0.84673000  1
  O  O53  1  0.10676000  0.75932160  0.65327000  1
  O  O54  1  0.60676000  0.74067840  0.15327000  1
  O  O55  1  0.89324000  0.24067840  0.34673000  1
  O  O56  1  0.61914000  0.16396170  0.91743000  1
  O  O57  1  0.88086000  0.66396170  0.58257000  1
  O  O58  1  0.38086000  0.83603830  0.08257000  1
  O  O59  1  0.11914000  0.33603830  0.41743000  1
  O  O60  1  0.41224000  0.07411160  0.10133000  1
  O  O61  1  0.08776000  0.57411160  0.39867000  1
  O  O62  1  0.58776000  0.92588840  0.89867000  1
  O  O63  1  0.91224000  0.42588840  0.60133000  1
  C  C64  1  0.40146000  0.01532000  0.01964000  1
  C  C65  1  0.09854000  0.51532000  0.48036000  1
  C  C66  1  0.59854000  0.98468000  0.98036000  1
  C  C67  1  0.90146000  0.48468000  0.51964000  1
  O  O68  1  0.24634000  0.98009840  0.96457000  1
  O  O69  1  0.25366000  0.48009840  0.53543000  1
  O  O70  1  0.75366000  0.01990160  0.03543000  1
  O  O71  1  0.74634000  0.51990160  0.46457000  1
