# generated using pymatgen
data_KSmH6C14S2O11
_symmetry_space_group_name_H-M   'P 1'
_cell_length_a   48.83220000
_cell_length_b   48.83220000
_cell_length_c   8.48346000
_cell_angle_alpha   90.00000000
_cell_angle_beta   90.00000000
_cell_angle_gamma   120.00000000
_symmetry_Int_Tables_number   1
_chemical_formula_structural   KSmH6C14S2O11
_chemical_formula_sum   'K18 Sm18 H108 C252 S36 O198'
_cell_volume   17519.27902121
_cell_formula_units_Z   18
loop_
 _symmetry_equiv_pos_site_id
 _symmetry_equiv_pos_as_xyz
  1  'x, y, z'
loop_
 _atom_site_type_symbol
 _atom_site_label
 _atom_site_symmetry_multiplicity
 _atom_site_fract_x
 _atom_site_fract_y
 _atom_site_fract_z
 _atom_site_occupancy
  K  K0  1  0.17247800  0.24737600  0.07072000  1
  K  K1  1  0.75262400  0.92510200  0.07072000  1
  K  K2  1  0.07489800  0.82752200  0.07072000  1
  K  K3  1  0.75262400  0.82752200  0.57072000  1
  K  K4  1  0.07489800  0.24737600  0.57072000  1
  K  K5  1  0.17247800  0.92510200  0.57072000  1
  K  K6  1  0.83914467  0.58070933  0.40405333  1
  K  K7  1  0.41929067  0.25843533  0.40405333  1
  K  K8  1  0.74156467  0.16085533  0.40405333  1
  K  K9  1  0.41929067  0.16085533  0.90405333  1
  K  K10  1  0.74156467  0.58070933  0.90405333  1
  K  K11  1  0.83914467  0.25843533  0.90405333  1
  K  K12  1  0.50581133  0.91404267  0.73738667  1
  K  K13  1  0.08595733  0.59176867  0.73738667  1
  K  K14  1  0.40823133  0.49418867  0.73738667  1
  K  K15  1  0.08595733  0.49418867  0.23738667  1
  K  K16  1  0.40823133  0.91404267  0.23738667  1
  K  K17  1  0.50581133  0.59176867  0.23738667  1
  Sm  Sm18  1  0.17229300  0.32508200  0.38199500  1
  Sm  Sm19  1  0.67491800  0.84721100  0.38199500  1
  Sm  Sm20  1  0.15278900  0.82770700  0.38199500  1
  Sm  Sm21  1  0.67491800  0.82770700  0.88199500  1
  Sm  Sm22  1  0.15278900  0.32508200  0.88199500  1
  Sm  Sm23  1  0.17229300  0.84721100  0.88199500  1
  Sm  Sm24  1  0.83895967  0.65841533  0.71532833  1
  Sm  Sm25  1  0.34158467  0.18054433  0.71532833  1
  Sm  Sm26  1  0.81945567  0.16104033  0.71532833  1
  Sm  Sm27  1  0.34158467  0.16104033  0.21532833  1
  Sm  Sm28  1  0.81945567  0.65841533  0.21532833  1
  Sm  Sm29  1  0.83895967  0.18054433  0.21532833  1
  Sm  Sm30  1  0.50562633  0.99174867  0.04866167  1
  Sm  Sm31  1  0.00825133  0.51387767  0.04866167  1
  Sm  Sm32  1  0.48612233  0.49437367  0.04866167  1
  Sm  Sm33  1  0.00825133  0.49437367  0.54866167  1
  Sm  Sm34  1  0.48612233  0.99174867  0.54866167  1
  Sm  Sm35  1  0.50562633  0.51387767  0.54866167  1
  S  S36  1  0.15203400  0.24332300  0.43858180  1
  S  S37  1  0.75667700  0.90871100  0.43858180  1
  S  S38  1  0.09128900  0.84796600  0.43858180  1
  S  S39  1  0.75667700  0.84796600  0.93858180  1
  S  S40  1  0.09128900  0.24332300  0.93858180  1
  S  S41  1  0.15203400  0.90871100  0.93858180  1
  S  S42  1  0.81870067  0.57665633  0.77191513  1
  S  S43  1  0.42334367  0.24204433  0.77191513  1
  S  S44  1  0.75795567  0.18129933  0.77191513  1
  S  S45  1  0.42334367  0.18129933  0.27191513  1
  S  S46  1  0.75795567  0.57665633  0.27191513  1
  S  S47  1  0.81870067  0.24204433  0.27191513  1
  S  S48  1  0.48536733  0.90998967  0.10524847  1
  S  S49  1  0.09001033  0.57537767  0.10524847  1
  S  S50  1  0.42462233  0.51463267  0.10524847  1
  S  S51  1  0.09001033  0.51463267  0.60524847  1
  S  S52  1  0.42462233  0.90998967  0.60524847  1
  S  S53  1  0.48536733  0.57537767  0.60524847  1
  S  S54  1  0.34149400  0.25180300  0.60155170  1
  S  S55  1  0.74819700  0.08969100  0.60155170  1
  S  S56  1  0.91030900  0.65850600  0.60155170  1
  S  S57  1  0.74819700  0.65850600  0.10155170  1
  S  S58  1  0.91030900  0.25180300  0.10155170  1
  S  S59  1  0.34149400  0.08969100  0.10155170  1
  S  S60  1  0.00816067  0.58513633  0.93488503  1
  S  S61  1  0.41486367  0.42302433  0.93488503  1
  S  S62  1  0.57697567  0.99183933  0.93488503  1
  S  S63  1  0.41486367  0.99183933  0.43488503  1
  S  S64  1  0.57697567  0.58513633  0.43488503  1
  S  S65  1  0.00816067  0.42302433  0.43488503  1
  S  S66  1  0.67482733  0.91846967  0.26821837  1
  S  S67  1  0.08153033  0.75635767  0.26821837  1
  S  S68  1  0.24364233  0.32517267  0.26821837  1
  S  S69  1  0.08153033  0.32517267  0.76821837  1
  S  S70  1  0.24364233  0.91846967  0.76821837  1
  S  S71  1  0.67482733  0.75635767  0.76821837  1
  O  O72  1  0.17258150  0.30540110  0.64365000  1
  O  O73  1  0.69459890  0.86718040  0.64365000  1
  O  O74  1  0.13281960  0.82741850  0.64365000  1
  O  O75  1  0.69459890  0.82741850  0.14365000  1
  O  O76  1  0.13281960  0.30540110  0.14365000  1
  O  O77  1  0.17258150  0.86718040  0.14365000  1
  O  O78  1  0.83924817  0.63873443  0.97698333  1
  O  O79  1  0.36126557  0.20051373  0.97698333  1
  O  O80  1  0.79948627  0.16075183  0.97698333  1
  O  O81  1  0.36126557  0.16075183  0.47698333  1
  O  O82  1  0.79948627  0.63873443  0.47698333  1
  O  O83  1  0.83924817  0.20051373  0.47698333  1
  O  O84  1  0.50591483  0.97206777  0.31031667  1
  O  O85  1  0.02793223  0.53384707  0.31031667  1
  O  O86  1  0.46615293  0.49408517  0.31031667  1
  O  O87  1  0.02793223  0.49408517  0.81031667  1
  O  O88  1  0.46615293  0.97206777  0.81031667  1
  O  O89  1  0.50591483  0.53384707  0.81031667  1
  O  O90  1  0.17572130  0.28988100  0.88185000  1
  O  O91  1  0.71011900  0.88584030  0.88185000  1
  O  O92  1  0.11415970  0.82427870  0.88185000  1
  O  O93  1  0.71011900  0.82427870  0.38185000  1
  O  O94  1  0.11415970  0.28988100  0.38185000  1
  O  O95  1  0.17572130  0.88584030  0.38185000  1
  O  O96  1  0.84238797  0.62321433  0.21518333  1
  O  O97  1  0.37678567  0.21917363  0.21518333  1
  O  O98  1  0.78082637  0.15761203  0.21518333  1
  O  O99  1  0.37678567  0.15761203  0.71518333  1
  O  O100  1  0.78082637  0.62321433  0.71518333  1
  O  O101  1  0.84238797  0.21917363  0.71518333  1
  O  O102  1  0.50905463  0.95654767  0.54851667  1
  O  O103  1  0.04345233  0.55250697  0.54851667  1
  O  O104  1  0.44749303  0.49094537  0.54851667  1
  O  O105  1  0.04345233  0.49094537  0.04851667  1
  O  O106  1  0.44749303  0.95654767  0.04851667  1
  O  O107  1  0.50905463  0.55250697  0.04851667  1
  O  O108  1  0.15981130  0.27109100  0.34025000  1
  O  O109  1  0.72890900  0.88872030  0.34025000  1
  O  O110  1  0.11127970  0.84018870  0.34025000  1
  O  O111  1  0.72890900  0.84018870  0.84025000  1
  O  O112  1  0.11127970  0.27109100  0.84025000  1
  O  O113  1  0.15981130  0.88872030  0.84025000  1
  O  O114  1  0.82647797  0.60442433  0.67358333  1
  O  O115  1  0.39557567  0.22205363  0.67358333  1
  O  O116  1  0.77794637  0.17352203  0.67358333  1
  O  O117  1  0.39557567  0.17352203  0.17358333  1
  O  O118  1  0.77794637  0.60442433  0.17358333  1
  O  O119  1  0.82647797  0.22205363  0.17358333  1
  O  O120  1  0.49314463  0.93775767  0.00691667  1
  O  O121  1  0.06224233  0.55538697  0.00691667  1
  O  O122  1  0.44461303  0.50685537  0.00691667  1
  O  O123  1  0.06224233  0.50685537  0.50691667  1
  O  O124  1  0.44461303  0.93775767  0.50691667  1
  O  O125  1  0.49314463  0.55538697  0.50691667  1
  O  O126  1  0.14576160  0.21642110  0.33966000  1
  O  O127  1  0.78357890  0.92934050  0.33966000  1
  O  O128  1  0.07065950  0.85423840  0.33966000  1
  O  O129  1  0.78357890  0.85423840  0.83966000  1
  O  O130  1  0.07065950  0.21642110  0.83966000  1
  O  O131  1  0.14576160  0.92934050  0.83966000  1
  O  O132  1  0.81242827  0.54975443  0.67299333  1
  O  O133  1  0.45024557  0.26267383  0.67299333  1
  O  O134  1  0.73732617  0.18757173  0.67299333  1
  O  O135  1  0.45024557  0.18757173  0.17299333  1
  O  O136  1  0.73732617  0.54975443  0.17299333  1
  O  O137  1  0.81242827  0.26267383  0.17299333  1
  O  O138  1  0.47909493  0.88308777  0.00632667  1
  O  O139  1  0.11691223  0.59600717  0.00632667  1
  O  O140  1  0.40399283  0.52090507  0.00632667  1
  O  O141  1  0.11691223  0.52090507  0.50632667  1
  O  O142  1  0.40399283  0.88308777  0.50632667  1
  O  O143  1  0.47909493  0.59600717  0.50632667  1
  O  O144  1  0.12830180  0.23733130  0.55407000  1
  O  O145  1  0.76266870  0.89097050  0.55407000  1
  O  O146  1  0.10902950  0.87169820  0.55407000  1
  O  O147  1  0.76266870  0.87169820  0.05407000  1
  O  O148  1  0.10902950  0.23733130  0.05407000  1
  O  O149  1  0.12830180  0.89097050  0.05407000  1
  O  O150  1  0.79496847  0.57066463  0.88740333  1
  O  O151  1  0.42933537  0.22430383  0.88740333  1
  O  O152  1  0.77569617  0.20503153  0.88740333  1
  O  O153  1  0.42933537  0.20503153  0.38740333  1
  O  O154  1  0.77569617  0.57066463  0.38740333  1
  O  O155  1  0.79496847  0.22430383  0.38740333  1
  O  O156  1  0.46163513  0.90399797  0.22073667  1
  O  O157  1  0.09600203  0.55763717  0.22073667  1
  O  O158  1  0.44236283  0.53836487  0.22073667  1
  O  O159  1  0.09600203  0.53836487  0.72073667  1
  O  O160  1  0.44236283  0.90399797  0.72073667  1
  O  O161  1  0.46163513  0.55763717  0.72073667  1
  O  O162  1  0.30732160  0.18619110  0.21566000  1
  O  O163  1  0.81380890  0.12113050  0.21566000  1
  O  O164  1  0.87886950  0.69267840  0.21566000  1
  O  O165  1  0.81380890  0.69267840  0.71566000  1
  O  O166  1  0.87886950  0.18619110  0.71566000  1
  O  O167  1  0.30732160  0.12113050  0.71566000  1
  O  O168  1  0.97398827  0.51952443  0.54899333  1
  O  O169  1  0.48047557  0.45446383  0.54899333  1
  O  O170  1  0.54553617  0.02601173  0.54899333  1
  O  O171  1  0.48047557  0.02601173  0.04899333  1
  O  O172  1  0.54553617  0.51952443  0.04899333  1
  O  O173  1  0.97398827  0.45446383  0.04899333  1
  O  O174  1  0.64065493  0.85285777  0.88232667  1
  O  O175  1  0.14714223  0.78779717  0.88232667  1
  O  O176  1  0.21220283  0.35934507  0.88232667  1
  O  O177  1  0.14714223  0.35934507  0.38232667  1
  O  O178  1  0.21220283  0.85285777  0.38232667  1
  O  O179  1  0.64065493  0.78779717  0.38232667  1
  O  O180  1  0.32391150  0.18418110  0.45355000  1
  O  O181  1  0.81581890  0.13973040  0.45355000  1
  O  O182  1  0.86026960  0.67608850  0.45355000  1
  O  O183  1  0.81581890  0.67608850  0.95355000  1
  O  O184  1  0.86026960  0.18418110  0.95355000  1
  O  O185  1  0.32391150  0.13973040  0.95355000  1
  O  O186  1  0.99057817  0.51751443  0.78688333  1
  O  O187  1  0.48248557  0.47306373  0.78688333  1
  O  O188  1  0.52693627  0.00942183  0.78688333  1
  O  O189  1  0.48248557  0.00942183  0.28688333  1
  O  O190  1  0.52693627  0.51751443  0.28688333  1
  O  O191  1  0.99057817  0.47306373  0.28688333  1
  O  O192  1  0.65724483  0.85084777  0.12021667  1
  O  O193  1  0.14915223  0.80639707  0.12021667  1
  O  O194  1  0.19360293  0.34275517  0.12021667  1
  O  O195  1  0.14915223  0.34275517  0.62021667  1
  O  O196  1  0.19360293  0.85084777  0.62021667  1
  O  O197  1  0.65724483  0.80639707  0.62021667  1
  O  O198  1  0.36200160  0.25655120  0.47046000  1
  O  O199  1  0.74344880  0.10545040  0.47046000  1
  O  O200  1  0.89454960  0.63799840  0.47046000  1
  O  O201  1  0.74344880  0.63799840  0.97046000  1
  O  O202  1  0.89454960  0.25655120  0.97046000  1
  O  O203  1  0.36200160  0.10545040  0.97046000  1
  O  O204  1  0.02866827  0.58988453  0.80379333  1
  O  O205  1  0.41011547  0.43878373  0.80379333  1
  O  O206  1  0.56121627  0.97133173  0.80379333  1
  O  O207  1  0.41011547  0.97133173  0.30379333  1
  O  O208  1  0.56121627  0.58988453  0.30379333  1
  O  O209  1  0.02866827  0.43878373  0.30379333  1
  O  O210  1  0.69533493  0.92321787  0.13712667  1
  O  O211  1  0.07678213  0.77211707  0.13712667  1
  O  O212  1  0.22788293  0.30466507  0.13712667  1
  O  O213  1  0.07678213  0.30466507  0.63712667  1
  O  O214  1  0.22788293  0.92321787  0.63712667  1
  O  O215  1  0.69533493  0.77211707  0.63712667  1
  O  O216  1  0.34054140  0.22881000  0.71626000  1
  O  O217  1  0.77119000  0.11173140  0.71626000  1
  O  O218  1  0.88826860  0.65945860  0.71626000  1
  O  O219  1  0.77119000  0.65945860  0.21626000  1
  O  O220  1  0.88826860  0.22881000  0.21626000  1
  O  O221  1  0.34054140  0.11173140  0.21626000  1
  O  O222  1  0.00720807  0.56214333  0.04959333  1
  O  O223  1  0.43785667  0.44506473  0.04959333  1
  O  O224  1  0.55493527  0.99279193  0.04959333  1
  O  O225  1  0.43785667  0.99279193  0.54959333  1
  O  O226  1  0.55493527  0.56214333  0.54959333  1
  O  O227  1  0.00720807  0.44506473  0.54959333  1
  O  O228  1  0.67387473  0.89547667  0.38292667  1
  O  O229  1  0.10452333  0.77839807  0.38292667  1
  O  O230  1  0.22160193  0.32612527  0.38292667  1
  O  O231  1  0.10452333  0.32612527  0.88292667  1
  O  O232  1  0.22160193  0.89547667  0.88292667  1
  O  O233  1  0.67387473  0.77839807  0.88292667  1
  O  O234  1  0.34637140  0.28058100  0.67746000  1
  O  O235  1  0.71941900  0.06579040  0.67746000  1
  O  O236  1  0.93420960  0.65362860  0.67746000  1
  O  O237  1  0.71941900  0.65362860  0.17746000  1
  O  O238  1  0.93420960  0.28058100  0.17746000  1
  O  O239  1  0.34637140  0.06579040  0.17746000  1
  O  O240  1  0.01303807  0.61391433  0.01079333  1
  O  O241  1  0.38608567  0.39912373  0.01079333  1
  O  O242  1  0.60087627  0.98696193  0.01079333  1
  O  O243  1  0.38608567  0.98696193  0.51079333  1
  O  O244  1  0.60087627  0.61391433  0.51079333  1
  O  O245  1  0.01303807  0.39912373  0.51079333  1
  O  O246  1  0.67970473  0.94724767  0.34412667  1
  O  O247  1  0.05275233  0.73245707  0.34412667  1
  O  O248  1  0.26754293  0.32029527  0.34412667  1
  O  O249  1  0.05275233  0.32029527  0.84412667  1
  O  O250  1  0.26754293  0.94724767  0.84412667  1
  O  O251  1  0.67970473  0.73245707  0.84412667  1
  C  C252  1  0.19665200  0.27296150  0.67606000  1
  C  C253  1  0.72703850  0.92369050  0.67606000  1
  C  C254  1  0.07630950  0.80334800  0.67606000  1
  C  C255  1  0.72703850  0.80334800  0.17606000  1
  C  C256  1  0.07630950  0.27296150  0.17606000  1
  C  C257  1  0.19665200  0.92369050  0.17606000  1
  C  C258  1  0.86331867  0.60629483  0.00939333  1
  C  C259  1  0.39370517  0.25702383  0.00939333  1
  C  C260  1  0.74297617  0.13668133  0.00939333  1
  C  C261  1  0.39370517  0.13668133  0.50939333  1
  C  C262  1  0.74297617  0.60629483  0.50939333  1
  C  C263  1  0.86331867  0.25702383  0.50939333  1
  C  C264  1  0.52998533  0.93962817  0.34272667  1
  C  C265  1  0.06037183  0.59035717  0.34272667  1
  C  C266  1  0.40964283  0.47001467  0.34272667  1
  C  C267  1  0.06037183  0.47001467  0.84272667  1
  C  C268  1  0.40964283  0.93962817  0.84272667  1
  C  C269  1  0.52998533  0.59035717  0.84272667  1
  C  C270  1  0.18712200  0.25293150  0.54667000  1
  C  C271  1  0.74706850  0.93419050  0.54667000  1
  C  C272  1  0.06580950  0.81287800  0.54667000  1
  C  C273  1  0.74706850  0.81287800  0.04667000  1
  C  C274  1  0.06580950  0.25293150  0.04667000  1
  C  C275  1  0.18712200  0.93419050  0.04667000  1
  C  C276  1  0.85378867  0.58626483  0.88000333  1
  C  C277  1  0.41373517  0.26752383  0.88000333  1
  C  C278  1  0.73247617  0.14621133  0.88000333  1
  C  C279  1  0.41373517  0.14621133  0.38000333  1
  C  C280  1  0.73247617  0.58626483  0.38000333  1
  C  C281  1  0.85378867  0.26752383  0.38000333  1
  C  C282  1  0.52045533  0.91959817  0.21333667  1
  C  C283  1  0.08040183  0.60085717  0.21333667  1
  C  C284  1  0.39914283  0.47954467  0.21333667  1
  C  C285  1  0.08040183  0.47954467  0.71333667  1
  C  C286  1  0.39914283  0.91959817  0.71333667  1
  C  C287  1  0.52045533  0.60085717  0.71333667  1
  C  C288  1  0.20509210  0.23987160  0.49668000  1
  C  C289  1  0.76012840  0.96522050  0.49668000  1
  C  C290  1  0.03477950  0.79490790  0.49668000  1
  C  C291  1  0.76012840  0.79490790  0.00000000  1
  C  C292  1  0.03477950  0.23987160  0.00000000  1
  C  C293  1  0.20509210  0.96522050  0.00000000  1
  C  C294  1  0.87175877  0.57320493  0.83001333  1
  C  C295  1  0.42679507  0.29855383  0.83001333  1
  C  C296  1  0.70144617  0.12824123  0.83001333  1
  C  C297  1  0.42679507  0.12824123  0.33001333  1
  C  C298  1  0.70144617  0.57320493  0.33001333  1
  C  C299  1  0.87175877  0.29855383  0.33001333  1
  C  C300  1  0.53842543  0.90653827  0.16334667  1
  C  C301  1  0.09346173  0.63188717  0.16334667  1
  C  C302  1  0.36811283  0.46157457  0.16334667  1
  C  C303  1  0.09346173  0.46157457  0.66334667  1
  C  C304  1  0.36811283  0.90653827  0.66334667  1
  C  C305  1  0.53842543  0.63188717  0.66334667  1
  H  H306  1  0.19917000  0.22743000  0.40633000  1
  H  H307  1  0.77257000  0.97174000  0.40633000  1
  H  H308  1  0.02826000  0.80083000  0.40633000  1
  H  H309  1  0.77257000  0.80083000  0.90633000  1
  H  H310  1  0.02826000  0.22743000  0.90633000  1
  H  H311  1  0.19917000  0.97174000  0.90633000  1
  H  H312  1  0.86583667  0.56076333  0.73966333  1
  H  H313  1  0.43923667  0.30507333  0.73966333  1
  H  H314  1  0.69492667  0.13416333  0.73966333  1
  H  H315  1  0.43923667  0.13416333  0.23966333  1
  H  H316  1  0.69492667  0.56076333  0.23966333  1
  H  H317  1  0.86583667  0.30507333  0.23966333  1
  H  H318  1  0.53250333  0.89409667  0.07299667  1
  H  H319  1  0.10590333  0.63840667  0.07299667  1
  H  H320  1  0.36159333  0.46749667  0.07299667  1
  H  H321  1  0.10590333  0.46749667  0.57299667  1
  H  H322  1  0.36159333  0.89409667  0.57299667  1
  H  H323  1  0.53250333  0.63840667  0.57299667  1
  C  C324  1  0.23228250  0.24520190  0.58048000  1
  C  C325  1  0.75479810  0.98708060  0.58048000  1
  C  C326  1  0.01291940  0.76771750  0.58048000  1
  C  C327  1  0.75479810  0.76771750  0.08048000  1
  C  C328  1  0.01291940  0.24520190  0.08048000  1
  C  C329  1  0.23228250  0.98708060  0.08048000  1
  C  C330  1  0.89894917  0.57853523  0.91381333  1
  C  C331  1  0.42146477  0.32041393  0.91381333  1
  C  C332  1  0.67958607  0.10105083  0.91381333  1
  C  C333  1  0.42146477  0.10105083  0.41381333  1
  C  C334  1  0.67958607  0.57853523  0.41381333  1
  C  C335  1  0.89894917  0.32041393  0.41381333  1
  C  C336  1  0.56561583  0.91186857  0.24714667  1
  C  C337  1  0.08813143  0.65374727  0.24714667  1
  C  C338  1  0.34625273  0.43438417  0.24714667  1
  C  C339  1  0.08813143  0.43438417  0.74714667  1
  C  C340  1  0.34625273  0.91186857  0.74714667  1
  C  C341  1  0.56561583  0.65374727  0.74714667  1
  C  C342  1  0.23994230  0.26325180  0.71278000  1
  C  C343  1  0.73674820  0.97669050  0.71278000  1
  C  C344  1  0.02330950  0.76005770  0.71278000  1
  C  C345  1  0.73674820  0.76005770  0.21278000  1
  C  C346  1  0.02330950  0.26325180  0.21278000  1
  C  C347  1  0.23994230  0.97669050  0.21278000  1
  C  C348  1  0.90660897  0.59658513  0.04611333  1
  C  C349  1  0.40341487  0.31002383  0.04611333  1
  C  C350  1  0.68997617  0.09339103  0.04611333  1
  C  C351  1  0.40341487  0.09339103  0.54611333  1
  C  C352  1  0.68997617  0.59658513  0.54611333  1
  C  C353  1  0.90660897  0.31002383  0.54611333  1
  C  C354  1  0.57327563  0.92991847  0.37944667  1
  C  C355  1  0.07008153  0.64335717  0.37944667  1
  C  C356  1  0.35664283  0.42672437  0.37944667  1
  C  C357  1  0.07008153  0.42672437  0.87944667  1
  C  C358  1  0.35664283  0.92991847  0.87944667  1
  C  C359  1  0.57327563  0.64335717  0.87944667  1
  H  H360  1  0.25707000  0.26623000  0.77293000  1
  H  H361  1  0.73377000  0.99084000  0.77293000  1
  H  H362  1  0.00916000  0.74293000  0.77293000  1
  H  H363  1  0.73377000  0.74293000  0.27293000  1
  H  H364  1  0.00916000  0.26623000  0.27293000  1
  H  H365  1  0.25707000  0.99084000  0.27293000  1
  H  H366  1  0.92373667  0.59956333  0.10626333  1
  H  H367  1  0.40043667  0.32417333  0.10626333  1
  H  H368  1  0.67582667  0.07626333  0.10626333  1
  H  H369  1  0.40043667  0.07626333  0.60626333  1
  H  H370  1  0.67582667  0.59956333  0.60626333  1
  H  H371  1  0.92373667  0.32417333  0.60626333  1
  H  H372  1  0.59040333  0.93289667  0.43959667  1
  H  H373  1  0.06710333  0.65750667  0.43959667  1
  H  H374  1  0.34249333  0.40959667  0.43959667  1
  H  H375  1  0.06710333  0.40959667  0.93959667  1
  H  H376  1  0.34249333  0.93289667  0.93959667  1
  H  H377  1  0.59040333  0.65750667  0.93959667  1
  C  C378  1  0.22262250  0.27725190  0.75978000  1
  C  C379  1  0.72274810  0.94537060  0.75978000  1
  C  C380  1  0.05462940  0.77737750  0.75978000  1
  C  C381  1  0.72274810  0.77737750  0.25978000  1
  C  C382  1  0.05462940  0.27725190  0.25978000  1
  C  C383  1  0.22262250  0.94537060  0.25978000  1
  C  C384  1  0.88928917  0.61058523  0.09311333  1
  C  C385  1  0.38941477  0.27870393  0.09311333  1
  C  C386  1  0.72129607  0.11071083  0.09311333  1
  C  C387  1  0.38941477  0.11071083  0.59311333  1
  C  C388  1  0.72129607  0.61058523  0.59311333  1
  C  C389  1  0.88928917  0.27870393  0.59311333  1
  C  C390  1  0.55595583  0.94391857  0.42644667  1
  C  C391  1  0.05608143  0.61203727  0.42644667  1
  C  C392  1  0.38796273  0.44404417  0.42644667  1
  C  C393  1  0.05608143  0.44404417  0.92644667  1
  C  C394  1  0.38796273  0.94391857  0.92644667  1
  C  C395  1  0.55595583  0.61203727  0.92644667  1
  H  H396  1  0.22867000  0.28983000  0.84973000  1
  H  H397  1  0.71017000  0.93884000  0.84973000  1
  H  H398  1  0.06116000  0.77133000  0.84973000  1
  H  H399  1  0.71017000  0.77133000  0.34973000  1
  H  H400  1  0.06116000  0.28983000  0.34973000  1
  H  H401  1  0.22867000  0.93884000  0.34973000  1
  H  H402  1  0.89533667  0.62316333  0.18306333  1
  H  H403  1  0.37683667  0.27217333  0.18306333  1
  H  H404  1  0.72782667  0.10466333  0.18306333  1
  H  H405  1  0.37683667  0.10466333  0.68306333  1
  H  H406  1  0.72782667  0.62316333  0.68306333  1
  H  H407  1  0.89533667  0.27217333  0.68306333  1
  H  H408  1  0.56200333  0.95649667  0.51639667  1
  H  H409  1  0.04350333  0.60550667  0.51639667  1
  H  H410  1  0.39449333  0.43799667  0.51639667  1
  H  H411  1  0.04350333  0.43799667  0.01639667  1
  H  H412  1  0.39449333  0.95649667  0.01639667  1
  H  H413  1  0.56200333  0.60550667  0.01639667  1
  C  C414  1  0.18040180  0.28993130  0.73847000  1
  C  C415  1  0.71006870  0.89047050  0.73847000  1
  C  C416  1  0.10952950  0.81959820  0.73847000  1
  C  C417  1  0.71006870  0.81959820  0.23847000  1
  C  C418  1  0.10952950  0.28993130  0.23847000  1
  C  C419  1  0.18040180  0.89047050  0.23847000  1
  C  C420  1  0.84706847  0.62326463  0.07180333  1
  C  C421  1  0.37673537  0.22380383  0.07180333  1
  C  C422  1  0.77619617  0.15293153  0.07180333  1
  C  C423  1  0.37673537  0.15293153  0.57180333  1
  C  C424  1  0.77619617  0.62326463  0.57180333  1
  C  C425  1  0.84706847  0.22380383  0.57180333  1
  C  C426  1  0.51373513  0.95659797  0.40513667  1
  C  C427  1  0.04340203  0.55713717  0.40513667  1
  C  C428  1  0.44286283  0.48626487  0.40513667  1
  C  C429  1  0.04340203  0.48626487  0.90513667  1
  C  C430  1  0.44286283  0.95659797  0.90513667  1
  C  C431  1  0.51373513  0.55713717  0.90513667  1
  C  C432  1  0.25186240  0.23174190  0.52208000  1
  C  C433  1  0.76825810  0.02012050  0.52208000  1
  C  C434  1  0.97987950  0.74813760  0.52208000  1
  C  C435  1  0.76825810  0.74813760  0.02208000  1
  C  C436  1  0.97987950  0.23174190  0.02208000  1
  C  C437  1  0.25186240  0.02012050  0.02208000  1
  C  C438  1  0.91852907  0.56507523  0.85541333  1
  C  C439  1  0.43492477  0.35345383  0.85541333  1
  C  C440  1  0.64654617  0.08147093  0.85541333  1
  C  C441  1  0.43492477  0.08147093  0.35541333  1
  C  C442  1  0.64654617  0.56507523  0.35541333  1
  C  C443  1  0.91852907  0.35345383  0.35541333  1
  C  C444  1  0.58519573  0.89840857  0.18874667  1
  C  C445  1  0.10159143  0.68678717  0.18874667  1
  C  C446  1  0.31321283  0.41480427  0.18874667  1
  C  C447  1  0.10159143  0.41480427  0.68874667  1
  C  C448  1  0.31321283  0.89840857  0.68874667  1
  C  C449  1  0.58519573  0.68678717  0.68874667  1
  C  C450  1  0.24040230  0.20574180  0.42519000  1
  C  C451  1  0.79425820  0.03466050  0.42519000  1
  C  C452  1  0.96533950  0.75959770  0.42519000  1
  C  C453  1  0.79425820  0.75959770  0.92519000  1
  C  C454  1  0.96533950  0.20574180  0.92519000  1
  C  C455  1  0.24040230  0.03466050  0.92519000  1
  C  C456  1  0.90706897  0.53907513  0.75852333  1
  C  C457  1  0.46092487  0.36799383  0.75852333  1
  C  C458  1  0.63200617  0.09293103  0.75852333  1
  C  C459  1  0.46092487  0.09293103  0.25852333  1
  C  C460  1  0.63200617  0.53907513  0.25852333  1
  C  C461  1  0.90706897  0.36799383  0.25852333  1
  C  C462  1  0.57373563  0.87240847  0.09185667  1
  C  C463  1  0.12759153  0.70132717  0.09185667  1
  C  C464  1  0.29867283  0.42626437  0.09185667  1
  C  C465  1  0.12759153  0.42626437  0.59185667  1
  C  C466  1  0.29867283  0.87240847  0.59185667  1
  C  C467  1  0.57373563  0.70132717  0.59185667  1
  H  H468  1  0.21917000  0.19553000  0.39553000  1
  H  H469  1  0.80447000  0.02364000  0.39553000  1
  H  H470  1  0.97636000  0.78083000  0.39553000  1
  H  H471  1  0.80447000  0.78083000  0.89553000  1
  H  H472  1  0.97636000  0.19553000  0.89553000  1
  H  H473  1  0.21917000  0.02364000  0.89553000  1
  H  H474  1  0.88583667  0.52886333  0.72886333  1
  H  H475  1  0.47113667  0.35697333  0.72886333  1
  H  H476  1  0.64302667  0.11416333  0.72886333  1
  H  H477  1  0.47113667  0.11416333  0.22886333  1
  H  H478  1  0.64302667  0.52886333  0.22886333  1
  H  H479  1  0.88583667  0.35697333  0.22886333  1
  H  H480  1  0.55250333  0.86219667  0.06219667  1
  H  H481  1  0.13780333  0.69030667  0.06219667  1
  H  H482  1  0.30969333  0.44749667  0.06219667  1
  H  H483  1  0.13780333  0.44749667  0.56219667  1
  H  H484  1  0.30969333  0.86219667  0.56219667  1
  H  H485  1  0.55250333  0.69030667  0.56219667  1
  C  C486  1  0.25938230  0.19440180  0.37079000  1
  C  C487  1  0.80559820  0.06498050  0.37079000  1
  C  C488  1  0.93501950  0.74061770  0.37079000  1
  C  C489  1  0.80559820  0.74061770  0.87079000  1
  C  C490  1  0.93501950  0.19440180  0.87079000  1
  C  C491  1  0.25938230  0.06498050  0.87079000  1
  C  C492  1  0.92604897  0.52773513  0.70412333  1
  C  C493  1  0.47226487  0.39831383  0.70412333  1
  C  C494  1  0.60168617  0.07395103  0.70412333  1
  C  C495  1  0.47226487  0.07395103  0.20412333  1
  C  C496  1  0.60168617  0.52773513  0.20412333  1
  C  C497  1  0.92604897  0.39831383  0.20412333  1
  C  C498  1  0.59271563  0.86106847  0.03745667  1
  C  C499  1  0.13893153  0.73164717  0.03745667  1
  C  C500  1  0.26835283  0.40728437  0.03745667  1
  C  C501  1  0.13893153  0.40728437  0.53745667  1
  C  C502  1  0.26835283  0.86106847  0.53745667  1
  C  C503  1  0.59271563  0.73164717  0.53745667  1
  H  H504  1  0.25127000  0.17793000  0.29793000  1
  H  H505  1  0.82207000  0.07334000  0.29793000  1
  H  H506  1  0.92666000  0.74873000  0.29793000  1
  H  H507  1  0.82207000  0.74873000  0.79793000  1
  H  H508  1  0.92666000  0.17793000  0.79793000  1
  H  H509  1  0.25127000  0.07334000  0.79793000  1
  H  H510  1  0.91793667  0.51126333  0.63126333  1
  H  H511  1  0.48873667  0.40667333  0.63126333  1
  H  H512  1  0.59332667  0.08206333  0.63126333  1
  H  H513  1  0.48873667  0.08206333  0.13126333  1
  H  H514  1  0.59332667  0.51126333  0.13126333  1
  H  H515  1  0.91793667  0.40667333  0.13126333  1
  H  H516  1  0.58460333  0.84459667  0.96459667  1
  H  H517  1  0.15540333  0.74000667  0.96459667  1
  H  H518  1  0.25999333  0.41539667  0.96459667  1
  H  H519  1  0.15540333  0.41539667  0.46459667  1
  H  H520  1  0.25999333  0.84459667  0.46459667  1
  H  H521  1  0.58460333  0.74000667  0.46459667  1
  C  C522  1  0.29000210  0.20685150  0.42188000  1
  C  C523  1  0.79314850  0.08315060  0.42188000  1
  C  C524  1  0.91684940  0.70999790  0.42188000  1
  C  C525  1  0.79314850  0.70999790  0.92188000  1
  C  C526  1  0.91684940  0.20685150  0.92188000  1
  C  C527  1  0.29000210  0.08315060  0.92188000  1
  C  C528  1  0.95666877  0.54018483  0.75521333  1
  C  C529  1  0.45981517  0.41648393  0.75521333  1
  C  C530  1  0.58351607  0.04333123  0.75521333  1
  C  C531  1  0.45981517  0.04333123  0.25521333  1
  C  C532  1  0.58351607  0.54018483  0.25521333  1
  C  C533  1  0.95666877  0.41648393  0.25521333  1
  C  C534  1  0.62333543  0.87351817  0.08854667  1
  C  C535  1  0.12648183  0.74981727  0.08854667  1
  C  C536  1  0.25018273  0.37666457  0.08854667  1
  C  C537  1  0.12648183  0.37666457  0.58854667  1
  C  C538  1  0.25018273  0.87351817  0.58854667  1
  C  C539  1  0.62333543  0.74981727  0.58854667  1
  C  C540  1  0.30220200  0.23244150  0.52247000  1
  C  C541  1  0.76755850  0.06976050  0.52247000  1
  C  C542  1  0.93023950  0.69779800  0.52247000  1
  C  C543  1  0.76755850  0.69779800  0.02247000  1
  C  C544  1  0.93023950  0.23244150  0.02247000  1
  C  C545  1  0.30220200  0.06976050  0.02247000  1
  C  C546  1  0.96886867  0.56577483  0.85580333  1
  C  C547  1  0.43422517  0.40309383  0.85580333  1
  C  C548  1  0.59690617  0.03113133  0.85580333  1
  C  C549  1  0.43422517  0.03113133  0.35580333  1
  C  C550  1  0.59690617  0.56577483  0.35580333  1
  C  C551  1  0.96886867  0.40309383  0.35580333  1
  C  C552  1  0.63553533  0.89910817  0.18913667  1
  C  C553  1  0.10089183  0.73642717  0.18913667  1
  C  C554  1  0.26357283  0.36446467  0.18913667  1
  C  C555  1  0.10089183  0.36446467  0.68913667  1
  C  C556  1  0.26357283  0.89910817  0.68913667  1
  C  C557  1  0.63553533  0.73642717  0.68913667  1
  C  C558  1  0.28339210  0.24560150  0.56798000  1
  C  C559  1  0.75439850  0.03779060  0.56798000  1
  C  C560  1  0.96220940  0.71660790  0.56798000  1
  C  C561  1  0.75439850  0.71660790  0.06798000  1
  C  C562  1  0.96220940  0.24560150  0.06798000  1
  C  C563  1  0.28339210  0.03779060  0.06798000  1
  C  C564  1  0.95005877  0.57893483  0.90131333  1
  C  C565  1  0.42106517  0.37112393  0.90131333  1
  C  C566  1  0.62887607  0.04994123  0.90131333  1
  C  C567  1  0.42106517  0.04994123  0.40131333  1
  C  C568  1  0.62887607  0.57893483  0.40131333  1
  C  C569  1  0.95005877  0.37112393  0.40131333  1
  C  C570  1  0.61672543  0.91226817  0.23464667  1
  C  C571  1  0.08773183  0.70445727  0.23464667  1
  C  C572  1  0.29554273  0.38327457  0.23464667  1
  C  C573  1  0.08773183  0.38327457  0.73464667  1
  C  C574  1  0.29554273  0.91226817  0.73464667  1
  C  C575  1  0.61672543  0.70445727  0.73464667  1
  H  H576  1  0.29227000  0.26383000  0.62943000  1
  H  H577  1  0.73617000  0.02844000  0.62943000  1
  H  H578  1  0.97156000  0.70773000  0.62943000  1
  H  H579  1  0.73617000  0.70773000  0.12943000  1
  H  H580  1  0.97156000  0.26383000  0.12943000  1
  H  H581  1  0.29227000  0.02844000  0.12943000  1
  H  H582  1  0.95893667  0.59716333  0.96276333  1
  H  H583  1  0.40283667  0.36177333  0.96276333  1
  H  H584  1  0.63822667  0.04106333  0.96276333  1
  H  H585  1  0.40283667  0.04106333  0.46276333  1
  H  H586  1  0.63822667  0.59716333  0.46276333  1
  H  H587  1  0.95893667  0.36177333  0.46276333  1
  H  H588  1  0.62560333  0.93049667  0.29609667  1
  H  H589  1  0.06950333  0.69510667  0.29609667  1
  H  H590  1  0.30489333  0.37439667  0.29609667  1
  H  H591  1  0.06950333  0.37439667  0.79609667  1
  H  H592  1  0.30489333  0.93049667  0.79609667  1
  H  H593  1  0.62560333  0.69510667  0.79609667  1
  C  C594  1  0.30870200  0.19196140  0.36107000  1
  C  C595  1  0.80803860  0.11674060  0.36107000  1
  C  C596  1  0.88325940  0.69129800  0.36107000  1
  C  C597  1  0.80803860  0.69129800  0.86107000  1
  C  C598  1  0.88325940  0.19196140  0.86107000  1
  C  C599  1  0.30870200  0.11674060  0.86107000  1
  C  C600  1  0.97536867  0.52529473  0.69440333  1
  C  C601  1  0.47470527  0.45007393  0.69440333  1
  C  C602  1  0.54992607  0.02463133  0.69440333  1
  C  C603  1  0.47470527  0.02463133  0.19440333  1
  C  C604  1  0.54992607  0.52529473  0.19440333  1
  C  C605  1  0.97536867  0.45007393  0.19440333  1
  C  C606  1  0.64203533  0.85862807  0.02773667  1
  C  C607  1  0.14137193  0.78340727  0.02773667  1
  C  C608  1  0.21659273  0.35796467  0.02773667  1
  C  C609  1  0.14137193  0.35796467  0.52773667  1
  C  C610  1  0.21659273  0.85862807  0.52773667  1
  C  C611  1  0.64203533  0.78340727  0.52773667  1
