# generated using pymatgen
data_KSmH6C14(SO5)2
_symmetry_space_group_name_H-M   'P 1'
_cell_length_a   8.48346000
_cell_length_b   28.33474578
_cell_length_c   28.33474578
_cell_angle_alpha   119.01639102
_cell_angle_beta   95.72767885
_cell_angle_gamma   95.72767885
_symmetry_Int_Tables_number   1
_chemical_formula_structural   KSmH6C14(SO5)2
_chemical_formula_sum   'K6 Sm6 H36 C84 S12 O60'
_cell_volume   5839.75967374
_cell_formula_units_Z   6
loop_
 _symmetry_equiv_pos_site_id
 _symmetry_equiv_pos_as_xyz
  1  'x, y, z'
loop_
 _atom_site_type_symbol
 _atom_site_label
 _atom_site_symmetry_multiplicity
 _atom_site_fract_x
 _atom_site_fract_y
 _atom_site_fract_z
 _atom_site_occupancy
  C  C252  1  0.87271200  0.12034250  0.46961350  1.0
  C  C253  1  0.40309850  0.53038650  0.65072900  1.0
  C  C254  1  0.75236950  0.34927100  0.87965750  1.0
  C  C255  1  0.90309850  0.65072900  0.53038650  1.0
  C  C256  1  0.25236950  0.87965750  0.34927100  1.0
  C  C257  1  0.37271200  0.46961350  0.12034250  1.0
  C  C270  1  0.73379200  0.12131250  0.44005350  1.0
  C  C271  1  0.29373850  0.55994650  0.68125900  1.0
  C  C272  1  0.61247950  0.31874100  0.87868750  1.0
  C  C273  1  0.79373850  0.68125900  0.55994650  1.0
  C  C274  1  0.11247950  0.87868750  0.31874100  1.0
  C  C275  1  0.23379200  0.44005350  0.12131250  1.0
  C  C288  1  0.70177210  0.17031260  0.44496370  1.0
  C  C289  1  0.25680840  0.55503630  0.72534890  1.0
  C  C290  1  0.53145950  0.27465110  0.82968740  1.0
  C  C291  1  0.75791507  0.72534890  0.55503630  1.0
  C  C292  1  0.03256617  0.82968740  0.27465110  1.0
  C  C293  1  0.20287877  0.44496370  0.17031260  1.0
  C  C324  1  0.81276250  0.21936310  0.47748440  1.0
  C  C325  1  0.33527810  0.52251560  0.74187870  1.0
  C  C326  1  0.59339940  0.25812130  0.78063690  1.0
  C  C327  1  0.83527810  0.74187870  0.52251560  1.0
  C  C328  1  0.09339940  0.78063690  0.25812130  1.0
  C  C329  1  0.31276250  0.47748440  0.21936310  1.0
  C  C342  1  0.95272230  0.21663280  0.50319410  1.0
  C  C343  1  0.44952820  0.49680590  0.71343870  1.0
  C  C344  1  0.73608950  0.28656130  0.78336720  1.0
  C  C345  1  0.94952820  0.71343870  0.49680590  1.0
  C  C346  1  0.23608950  0.78336720  0.28656130  1.0
  C  C347  1  0.45272230  0.50319410  0.21663280  1.0
  C  C378  1  0.98240250  0.16799310  0.49987440  1.0
  C  C379  1  0.48252810  0.50012560  0.66811870  1.0
  C  C380  1  0.81440940  0.33188130  0.83200690  1.0
  C  C381  1  0.98252810  0.66811870  0.50012560  1.0
  C  C382  1  0.31440940  0.83200690  0.33188130  1.0
  C  C383  1  0.48240250  0.49987440  0.16799310  1.0
  C  C414  1  0.91887180  0.07087230  0.47033310  1.0
  C  C415  1  0.44853870  0.52966690  0.60053920  1.0
  C  C416  1  0.84799950  0.39946080  0.92912770  1.0
  C  C417  1  0.94853870  0.60053920  0.52966690  1.0
  C  C418  1  0.34799950  0.92912770  0.39946080  1.0
  C  C419  1  0.41887180  0.47033310  0.07087230  1.0
  C  C432  1  0.77394240  0.27198290  0.48360430  1.0
  C  C433  1  0.29033810  0.51639570  0.78837860  1.0
  C  C434  1  0.50195950  0.21162140  0.72801710  1.0
  C  C435  1  0.79033810  0.78837860  0.51639570  1.0
  C  C436  1  0.00195950  0.72801710  0.21162140  1.0
  C  C437  1  0.27394240  0.48360430  0.27198290  1.0
  C  C450  1  0.66559230  0.27506280  0.44614410  1.0
  C  C451  1  0.21944820  0.55385590  0.82891870  1.0
  C  C452  1  0.39052950  0.17108130  0.72493720  1.0
  C  C453  1  0.71944820  0.82891870  0.55385590  1.0
  C  C454  1  0.89052950  0.72493720  0.17108130  1.0
  C  C455  1  0.16559230  0.44614410  0.27506280  1.0
  C  C486  1  0.63017230  0.32436280  0.45378410  1.0
  C  C487  1  0.17638820  0.54621590  0.87057870  1.0
  C  C488  1  0.30580950  0.12942130  0.67563720  1.0
  C  C489  1  0.67638820  0.87057870  0.54621590  1.0
  C  C490  1  0.80580950  0.67563720  0.12942130  1.0
  C  C491  1  0.13017230  0.45378410  0.32436280  1.0
  C  C522  1  0.71188210  0.37315270  0.49685360  1.0
  C  C523  1  0.21502850  0.50314640  0.87629910  1.0
  C  C524  1  0.33872940  0.12370090  0.62684730  1.0
  C  C525  1  0.71502850  0.87629910  0.50314640  1.0
  C  C526  1  0.83872940  0.62684730  0.12370090  1.0
  C  C527  1  0.21188210  0.49685360  0.37315270  1.0
  C  C540  1  0.82467200  0.37196250  0.53464350  1.0
  C  C541  1  0.29002850  0.46535650  0.83731900  1.0
  C  C542  1  0.45270950  0.16268100  0.62803750  1.0
  C  C543  1  0.79002850  0.83731900  0.46535650  1.0
  C  C544  1  0.95270950  0.62803750  0.16268100  1.0
  C  C545  1  0.32467200  0.53464350  0.37196250  1.0
  C  C558  1  0.85137210  0.32118270  0.52899360  1.0
  C  C559  1  0.32237850  0.47100640  0.79218910  1.0
  C  C560  1  0.53018940  0.20781090  0.67881730  1.0
  C  C561  1  0.82237850  0.79218910  0.47100640  1.0
  C  C562  1  0.03018940  0.67881730  0.20781090  1.0
  C  C563  1  0.35137210  0.52899360  0.32118270  1.0
  C  C594  1  0.66977200  0.42544260  0.50066340  1.0
  C  C595  1  0.16910860  0.49933660  0.92477920  1.0
  C  C596  1  0.24432940  0.07522080  0.57455740  1.0
  C  C597  1  0.66910860  0.92477920  0.49933660  1.0
  C  C598  1  0.74432940  0.57455740  0.07522080  1.0
  C  C599  1  0.16977200  0.50066340  0.42544260  1.0
  H  H306  1  0.60550000  0.17091000  0.42660000  1.0
  H  H307  1  0.17890000  0.57340000  0.74431000  1.0
  H  H308  1  0.43459000  0.25569000  0.82909000  1.0
  H  H309  1  0.67890000  0.74431000  0.57340000  1.0
  H  H310  1  0.93459000  0.82909000  0.25569000  1.0
  H  H311  1  0.10550000  0.42660000  0.17091000  1.0
  H  H360  1  0.03000000  0.24791000  0.52330000  1.0
  H  H361  1  0.50670000  0.47670000  0.72461000  1.0
  H  H362  1  0.78209000  0.27539000  0.75209000  1.0
  H  H363  1  0.00670000  0.72461000  0.47670000  1.0
  H  H364  1  0.28209000  0.75209000  0.27539000  1.0
  H  H365  1  0.53000000  0.52330000  0.24791000  1.0
  H  H396  1  0.07840000  0.16751000  0.51850000  1.0
  H  H397  1  0.55990000  0.48150000  0.64901000  1.0
  H  H398  1  0.91089000  0.35099000  0.83249000  1.0
  H  H399  1  0.05990000  0.64901000  0.48150000  1.0
  H  H400  1  0.41089000  0.83249000  0.35099000  1.0
  H  H401  1  0.57840000  0.51850000  0.16751000  1.0
  H  H468  1  0.61470000  0.24281000  0.41470000  1.0
  H  H469  1  0.20000000  0.58530000  0.82811000  1.0
  H  H470  1  0.37189000  0.17189000  0.75719000  1.0
  H  H471  1  0.70000000  0.82811000  0.58530000  1.0
  H  H472  1  0.87189000  0.75719000  0.17189000  1.0
  H  H473  1  0.11470000  0.41470000  0.24281000  1.0
  H  H504  1  0.54920000  0.32461000  0.42920000  1.0
  H  H505  1  0.12000000  0.57080000  0.89541000  1.0
  H  H506  1  0.22459000  0.10459000  0.67539000  1.0
  H  H507  1  0.62000000  0.89541000  0.57080000  1.0
  H  H508  1  0.72459000  0.67539000  0.10459000  1.0
  H  H509  1  0.04920000  0.42920000  0.32461000  1.0
  H  H576  1  0.92170000  0.32071000  0.55610000  1.0
  H  H577  1  0.36560000  0.44390000  0.76461000  1.0
  H  H578  1  0.60099000  0.23539000  0.67929000  1.0
  H  H579  1  0.86560000  0.76461000  0.44390000  1.0
  H  H580  1  0.10099000  0.67929000  0.23539000  1.0
  H  H581  1  0.42170000  0.55610000  0.32071000  1.0
  K  K0  1  0.24319800  0.09758000  0.41985400  1.0
  K  K1  1  0.82334400  0.58014600  0.67772600  1.0
  K  K2  1  0.14561800  0.32227400  0.90242000  1.0
  K  K3  1  0.32334400  0.67772600  0.58014600  1.0
  K  K4  1  0.64561800  0.90242000  0.32227400  1.0
  K  K5  1  0.74319800  0.41985400  0.09758000  1.0
  O  O72  1  0.81623150  0.03976190  0.47798260  1.0
  O  O73  1  0.33824890  0.52201740  0.56177930  1.0
  O  O74  1  0.77646960  0.43822070  0.96023810  1.0
  O  O75  1  0.83824890  0.56177930  0.52201740  1.0
  O  O76  1  0.27646960  0.96023810  0.43822070  1.0
  O  O77  1  0.31623150  0.47798260  0.03976190  1.0
  O  O90  1  0.05757130  0.06156160  0.46560230  1.0
  O  O91  1  0.59196900  0.53439770  0.59595930  1.0
  O  O92  1  0.99600970  0.40404070  0.93843840  1.0
  O  O93  1  0.09196900  0.59595930  0.53439770  1.0
  O  O94  1  0.49600970  0.93843840  0.40404070  1.0
  O  O95  1  0.55757130  0.46560230  0.06156160  1.0
  O  O108  1  0.50006130  0.04853160  0.43090230  1.0
  O  O109  1  0.06915900  0.56909770  0.61762930  1.0
  O  O110  1  0.45152970  0.38237070  0.95146840  1.0
  O  O111  1  0.56915900  0.61762930  0.56909770  1.0
  O  O112  1  0.95152970  0.95146840  0.38237070  1.0
  O  O113  1  0.00006130  0.43090230  0.04853160  1.0
  O  O126  1  0.48542160  0.07510210  0.36218270  1.0
  O  O127  1  0.12323890  0.63781730  0.71291940  1.0
  O  O128  1  0.41031950  0.28708060  0.92489790  1.0
  O  O129  1  0.62323890  0.71291940  0.63781730  1.0
  O  O130  1  0.91031950  0.92489790  0.28708060  1.0
  O  O131  1  0.98542160  0.36218270  0.07510210  1.0
  O  O144  1  0.68237180  0.01927230  0.36563310  1.0
  O  O145  1  0.31673870  0.63436690  0.65363920  1.0
  O  O146  1  0.66309950  0.34636080  0.98072770  1.0
  O  O147  1  0.81673870  0.65363920  0.63436690  1.0
  O  O148  1  0.16309950  0.98072770  0.34636080  1.0
  O  O149  1  0.18237180  0.36563310  0.01927230  1.0
  O  O162  1  0.52298160  0.42845210  0.49351270  1.0
  O  O163  1  0.02946890  0.50648730  0.93493940  1.0
  O  O164  1  0.09452950  0.06506060  0.57154790  1.0
  O  O165  1  0.52946890  0.93493940  0.50648730  1.0
  O  O166  1  0.59452950  0.57154790  0.06506060  1.0
  O  O167  1  0.02298160  0.49351270  0.42845210  1.0
  O  O180  1  0.77746150  0.46364190  0.50809260  1.0
  O  O181  1  0.26936890  0.49190740  0.95554930  1.0
  O  O182  1  0.31381960  0.04445070  0.53635810  1.0
  O  O183  1  0.76936890  0.95554930  0.49190740  1.0
  O  O184  1  0.81381960  0.53635810  0.04445070  1.0
  O  O185  1  0.27746150  0.50809260  0.46364190  1.0
  O  O198  1  0.83246160  0.46745200  0.61855280  1.0
  O  O199  1  0.21390880  0.38144720  0.84889920  1.0
  O  O200  1  0.36500960  0.15110080  0.53254800  1.0
  O  O201  1  0.71390880  0.84889920  0.38144720  1.0
  O  O202  1  0.86500960  0.53254800  0.15110080  1.0
  O  O203  1  0.33246160  0.61855280  0.46745200  1.0
  O  O216  1  0.05680140  0.45227280  0.56935140  1.0
  O  O217  1  0.48745000  0.43064860  0.88292140  1.0
  O  O218  1  0.60452860  0.11707860  0.54772720  1.0
  O  O219  1  0.98745000  0.88292140  0.43064860  1.0
  O  O220  1  0.10452860  0.54772720  0.11707860  1.0
  O  O221  1  0.55680140  0.56935140  0.45227280  1.0
  O  O234  1  0.02383140  0.41216180  0.62695240  1.0
  O  O235  1  0.39687900  0.37304760  0.78520940  1.0
  O  O236  1  0.61166960  0.21479060  0.58783820  1.0
  O  O237  1  0.89687900  0.78520940  0.37304760  1.0
  O  O238  1  0.11166960  0.58783820  0.21479060  1.0
  O  O239  1  0.52383140  0.62695240  0.41216180  1.0
  S  S36  1  0.59061580  0.06074500  0.39535700  1.0
  S  S37  1  0.19525880  0.60464300  0.66538800  1.0
  S  S38  1  0.52987080  0.33461200  0.93925500  1.0
  S  S39  1  0.69525880  0.66538800  0.60464300  1.0
  S  S40  1  0.02987080  0.93925500  0.33461200  1.0
  S  S41  1  0.09061580  0.39535700  0.06074500  1.0
  S  S54  1  0.94304570  0.43118500  0.59329700  1.0
  S  S55  1  0.34974870  0.40670300  0.83788800  1.0
  S  S56  1  0.51186070  0.16211200  0.56881500  1.0
  S  S57  1  0.84974870  0.83788800  0.40670300  1.0
  S  S58  1  0.01186070  0.56881500  0.16211200  1.0
  S  S59  1  0.44304570  0.59329700  0.43118500  1.0
  Sm  Sm18  1  0.55428800  0.01950400  0.49737500  1.0
  Sm  Sm19  1  0.05691300  0.50262500  0.52212900  1.0
  Sm  Sm20  1  0.53478400  0.47787100  0.98049600  1.0
  Sm  Sm21  1  0.55691300  0.52212900  0.50262500  1.0
  Sm  Sm22  1  0.03478400  0.98049600  0.47787100  1.0
  Sm  Sm23  1  0.05428800  0.49737500  0.01950400  1.0
