# generated using pymatgen
data_Zr3H30(C7O2)8
_symmetry_space_group_name_H-M   'P 1'
_cell_length_a   50.50588000
_cell_length_b   50.50588000
_cell_length_c   14.82476000
_cell_angle_alpha   90.00000000
_cell_angle_beta   90.00000000
_cell_angle_gamma   120.00000000
_symmetry_Int_Tables_number   1
_chemical_formula_structural   Zr3H30(C7O2)8
_chemical_formula_sum   'Zr18 H180 C336 O96'
_cell_volume   32749.31254826
_cell_formula_units_Z   6
loop_
 _symmetry_equiv_pos_site_id
 _symmetry_equiv_pos_as_xyz
  1  'x, y, z'
loop_
 _atom_site_type_symbol
 _atom_site_label
 _atom_site_symmetry_multiplicity
 _atom_site_fract_x
 _atom_site_fract_y
 _atom_site_fract_z
 _atom_site_occupancy
  Zr  Zr0  1  0.52793200  0.47207200  0.50000000  1
  Zr  Zr1  1  0.52792800  0.05586000  0.50000000  1
  Zr  Zr2  1  0.94414000  0.47206800  0.50000000  1
  Zr  Zr3  1  0.47206800  0.52792800  0.50000000  1
  Zr  Zr4  1  0.47207200  0.94414000  0.50000000  1
  Zr  Zr5  1  0.05586000  0.52793200  0.50000000  1
  Zr  Zr6  1  0.46496200  0.46496200  0.38106300  1
  Zr  Zr7  1  0.53503800  0.00000000  0.38106300  1
  Zr  Zr8  1  0.00000000  0.53503800  0.38106300  1
  Zr  Zr9  1  0.53503800  0.53503800  0.38106300  1
  Zr  Zr10  1  0.46496200  0.00000000  0.38106300  1
  Zr  Zr11  1  0.00000000  0.46496200  0.38106300  1
  Zr  Zr12  1  0.46496200  0.46496200  0.61893700  1
  Zr  Zr13  1  0.00000000  0.53503800  0.61893700  1
  Zr  Zr14  1  0.53503800  0.00000000  0.61893700  1
  Zr  Zr15  1  0.53503800  0.53503800  0.61893700  1
  Zr  Zr16  1  0.00000000  0.46496200  0.61893700  1
  Zr  Zr17  1  0.46496200  0.00000000  0.61893700  1
  O  O18  1  0.51458600  0.43302500  0.41163160  1
  O  O19  1  0.56697500  0.08156100  0.41163160  1
  O  O20  1  0.91843900  0.48541400  0.41163160  1
  O  O21  1  0.48541400  0.56697500  0.41163160  1
  O  O22  1  0.43302500  0.91843900  0.41163160  1
  O  O23  1  0.08156100  0.51458600  0.41163160  1
  O  O24  1  0.43302500  0.51458600  0.58836840  1
  O  O25  1  0.08156100  0.56697500  0.58836840  1
  O  O26  1  0.48541400  0.91843900  0.58836840  1
  O  O27  1  0.56697500  0.48541400  0.58836840  1
  O  O28  1  0.91843900  0.43302500  0.58836840  1
  O  O29  1  0.51458600  0.08156100  0.58836840  1
  O  O30  1  0.48541400  0.56697500  0.58836840  1
  O  O31  1  0.43302500  0.91843900  0.58836840  1
  O  O32  1  0.08156100  0.51458600  0.58836840  1
  O  O33  1  0.51458600  0.43302500  0.58836840  1
  O  O34  1  0.56697500  0.08156100  0.58836840  1
  O  O35  1  0.91843900  0.48541400  0.58836840  1
  O  O36  1  0.56697500  0.48541400  0.41163160  1
  O  O37  1  0.91843900  0.43302500  0.41163160  1
  O  O38  1  0.51458600  0.08156100  0.41163160  1
  O  O39  1  0.43302500  0.51458600  0.41163160  1
  O  O40  1  0.08156100  0.56697500  0.41163160  1
  O  O41  1  0.48541400  0.91843900  0.41163160  1
  O  O42  1  0.47363700  0.42787600  0.33622000  1
  O  O43  1  0.57212400  0.04576100  0.33622000  1
  O  O44  1  0.95423900  0.52636300  0.33622000  1
  O  O45  1  0.52636300  0.57212400  0.33622000  1
  O  O46  1  0.42787600  0.95423900  0.33622000  1
  O  O47  1  0.04576100  0.47363700  0.33622000  1
  O  O48  1  0.42787600  0.47363700  0.66378000  1
  O  O49  1  0.04576100  0.57212400  0.66378000  1
  O  O50  1  0.52636300  0.95423900  0.66378000  1
  O  O51  1  0.57212400  0.52636300  0.66378000  1
  O  O52  1  0.95423900  0.42787600  0.66378000  1
  O  O53  1  0.47363700  0.04576100  0.66378000  1
  O  O54  1  0.52636300  0.57212400  0.66378000  1
  O  O55  1  0.42787600  0.95423900  0.66378000  1
  O  O56  1  0.04576100  0.47363700  0.66378000  1
  O  O57  1  0.47363700  0.42787600  0.66378000  1
  O  O58  1  0.57212400  0.04576100  0.66378000  1
  O  O59  1  0.95423900  0.52636300  0.66378000  1
  O  O60  1  0.57212400  0.52636300  0.33622000  1
  O  O61  1  0.95423900  0.42787600  0.33622000  1
  O  O62  1  0.47363700  0.04576100  0.33622000  1
  O  O63  1  0.42787600  0.47363700  0.33622000  1
  O  O64  1  0.04576100  0.57212400  0.33622000  1
  O  O65  1  0.52636300  0.95423900  0.33622000  1
  O  O90  1  0.48627300  0.51373300  0.38133000  1
  O  O91  1  0.48626700  0.97254000  0.38133000  1
  O  O92  1  0.02746000  0.51372700  0.38133000  1
  O  O93  1  0.51372700  0.48626700  0.38133000  1
  O  O94  1  0.51373300  0.02746000  0.38133000  1
  O  O95  1  0.97254000  0.48627300  0.38133000  1
  O  O96  1  0.51373300  0.48627300  0.61867000  1
  O  O97  1  0.97254000  0.48626700  0.61867000  1
  O  O98  1  0.51372700  0.02746000  0.61867000  1
  O  O99  1  0.48626700  0.51372700  0.61867000  1
  O  O100  1  0.02746000  0.51373300  0.61867000  1
  O  O101  1  0.48627300  0.97254000  0.61867000  1
  O  O102  1  0.54937110  0.52199800  0.50000000  1
  O  O103  1  0.47800200  0.02737310  0.50000000  1
  O  O104  1  0.97262690  0.45062890  0.50000000  1
  O  O105  1  0.45062890  0.47800200  0.50000000  1
  O  O106  1  0.52199800  0.97262690  0.50000000  1
  O  O107  1  0.02737310  0.54937110  0.50000000  1
  O  O108  1  0.52199800  0.54937110  0.50000000  1
  O  O109  1  0.02737310  0.47800200  0.50000000  1
  O  O110  1  0.45062890  0.97262690  0.50000000  1
  O  O111  1  0.47800200  0.45062890  0.50000000  1
  O  O112  1  0.97262690  0.52199800  0.50000000  1
  O  O113  1  0.54937110  0.02737310  0.50000000  1
  C  C114  1  0.49173100  0.41852900  0.36003000  1
  C  C115  1  0.58147100  0.07320200  0.36003000  1
  C  C116  1  0.92679800  0.50826900  0.36003000  1
  C  C117  1  0.50826900  0.58147100  0.36003000  1
  C  C118  1  0.41852900  0.92679800  0.36003000  1
  C  C119  1  0.07320200  0.49173100  0.36003000  1
  C  C120  1  0.41852900  0.49173100  0.63997000  1
  C  C121  1  0.07320200  0.58147100  0.63997000  1
  C  C122  1  0.50826900  0.92679800  0.63997000  1
  C  C123  1  0.58147100  0.50826900  0.63997000  1
  C  C124  1  0.92679800  0.41852900  0.63997000  1
  C  C125  1  0.49173100  0.07320200  0.63997000  1
  C  C126  1  0.50826900  0.58147100  0.63997000  1
  C  C127  1  0.41852900  0.92679800  0.63997000  1
  C  C128  1  0.07320200  0.49173100  0.63997000  1
  C  C129  1  0.49173100  0.41852900  0.63997000  1
  C  C130  1  0.58147100  0.07320200  0.63997000  1
  C  C131  1  0.92679800  0.50826900  0.63997000  1
  C  C132  1  0.58147100  0.50826900  0.36003000  1
  C  C133  1  0.92679800  0.41852900  0.36003000  1
  C  C134  1  0.49173100  0.07320200  0.36003000  1
  C  C135  1  0.41852900  0.49173100  0.36003000  1
  C  C136  1  0.07320200  0.58147100  0.36003000  1
  C  C137  1  0.50826900  0.92679800  0.36003000  1
  C  C138  1  0.48580110  0.38884100  0.32263000  1
  C  C139  1  0.61115900  0.09696010  0.32263000  1
  C  C140  1  0.90303990  0.51419890  0.32263000  1
  C  C141  1  0.51419890  0.61115900  0.32263000  1
  C  C142  1  0.38884100  0.90303990  0.32263000  1
  C  C143  1  0.09696010  0.48580110  0.32263000  1
  C  C144  1  0.38884100  0.48580110  0.67737000  1
  C  C145  1  0.09696010  0.61115900  0.67737000  1
  C  C146  1  0.51419890  0.90303990  0.67737000  1
  C  C147  1  0.61115900  0.51419890  0.67737000  1
  C  C148  1  0.90303990  0.38884100  0.67737000  1
  C  C149  1  0.48580110  0.09696010  0.67737000  1
  C  C150  1  0.51419890  0.61115900  0.67737000  1
  C  C151  1  0.38884100  0.90303990  0.67737000  1
  C  C152  1  0.09696010  0.48580110  0.67737000  1
  C  C153  1  0.48580110  0.38884100  0.67737000  1
  C  C154  1  0.61115900  0.09696010  0.67737000  1
  C  C155  1  0.90303990  0.51419890  0.67737000  1
  C  C156  1  0.61115900  0.51419890  0.32263000  1
  C  C157  1  0.90303990  0.38884100  0.32263000  1
  C  C158  1  0.48580110  0.09696010  0.32263000  1
  C  C159  1  0.38884100  0.48580110  0.32263000  1
  C  C160  1  0.09696010  0.61115900  0.32263000  1
  C  C161  1  0.51419890  0.90303990  0.32263000  1
  C  C162  1  0.50236900  0.37595800  0.35743000  1
  C  C163  1  0.62404200  0.12641100  0.35743000  1
  C  C164  1  0.87358900  0.49763100  0.35743000  1
  C  C165  1  0.49763100  0.62404200  0.35743000  1
  C  C166  1  0.37595800  0.87358900  0.35743000  1
  C  C167  1  0.12641100  0.50236900  0.35743000  1
  C  C168  1  0.37595800  0.50236900  0.64257000  1
  C  C169  1  0.12641100  0.62404200  0.64257000  1
  C  C170  1  0.49763100  0.87358900  0.64257000  1
  C  C171  1  0.62404200  0.49763100  0.64257000  1
  C  C172  1  0.87358900  0.37595800  0.64257000  1
  C  C173  1  0.50236900  0.12641100  0.64257000  1
  C  C174  1  0.49763100  0.62404200  0.64257000  1
  C  C175  1  0.37595800  0.87358900  0.64257000  1
  C  C176  1  0.12641100  0.50236900  0.64257000  1
  C  C177  1  0.50236900  0.37595800  0.64257000  1
  C  C178  1  0.62404200  0.12641100  0.64257000  1
  C  C179  1  0.87358900  0.49763100  0.64257000  1
  C  C180  1  0.62404200  0.49763100  0.35743000  1
  C  C181  1  0.87358900  0.37595800  0.35743000  1
  C  C182  1  0.50236900  0.12641100  0.35743000  1
  C  C183  1  0.37595800  0.50236900  0.35743000  1
  C  C184  1  0.12641100  0.62404200  0.35743000  1
  C  C185  1  0.49763100  0.87358900  0.35743000  1
  H  H186  1  0.51686000  0.38586000  0.40235000  1
  H  H187  1  0.61414000  0.13100000  0.40235000  1
  H  H188  1  0.86900000  0.48314000  0.40235000  1
  H  H189  1  0.48314000  0.61414000  0.40235000  1
  H  H190  1  0.38586000  0.86900000  0.40235000  1
  H  H191  1  0.13100000  0.51686000  0.40235000  1
  H  H192  1  0.38586000  0.51686000  0.59765000  1
  H  H193  1  0.13100000  0.61414000  0.59765000  1
  H  H194  1  0.48314000  0.86900000  0.59765000  1
  H  H195  1  0.61414000  0.48314000  0.59765000  1
  H  H196  1  0.86900000  0.38586000  0.59765000  1
  H  H197  1  0.51686000  0.13100000  0.59765000  1
  H  H198  1  0.48314000  0.61414000  0.59765000  1
  H  H199  1  0.38586000  0.86900000  0.59765000  1
  H  H200  1  0.13100000  0.51686000  0.59765000  1
  H  H201  1  0.51686000  0.38586000  0.59765000  1
  H  H202  1  0.61414000  0.13100000  0.59765000  1
  H  H203  1  0.86900000  0.48314000  0.59765000  1
  H  H204  1  0.61414000  0.48314000  0.40235000  1
  H  H205  1  0.86900000  0.38586000  0.40235000  1
  H  H206  1  0.51686000  0.13100000  0.40235000  1
  H  H207  1  0.38586000  0.51686000  0.40235000  1
  H  H208  1  0.13100000  0.61414000  0.40235000  1
  H  H209  1  0.48314000  0.86900000  0.40235000  1
  C  C210  1  0.49673110  0.34749900  0.32293000  1
  C  C211  1  0.65250100  0.14923210  0.32293000  1
  C  C212  1  0.85076790  0.50326890  0.32293000  1
  C  C213  1  0.50326890  0.65250100  0.32293000  1
  C  C214  1  0.34749900  0.85076790  0.32293000  1
  C  C215  1  0.14923210  0.49673110  0.32293000  1
  C  C216  1  0.34749900  0.49673110  0.67707000  1
  C  C217  1  0.14923210  0.65250100  0.67707000  1
  C  C218  1  0.50326890  0.85076790  0.67707000  1
  C  C219  1  0.65250100  0.50326890  0.67707000  1
  C  C220  1  0.85076790  0.34749900  0.67707000  1
  C  C221  1  0.49673110  0.14923210  0.67707000  1
  C  C222  1  0.50326890  0.65250100  0.67707000  1
  C  C223  1  0.34749900  0.85076790  0.67707000  1
  C  C224  1  0.14923210  0.49673110  0.67707000  1
  C  C225  1  0.49673110  0.34749900  0.67707000  1
  C  C226  1  0.65250100  0.14923210  0.67707000  1
  C  C227  1  0.85076790  0.50326890  0.67707000  1
  C  C228  1  0.65250100  0.50326890  0.32293000  1
  C  C229  1  0.85076790  0.34749900  0.32293000  1
  C  C230  1  0.49673110  0.14923210  0.32293000  1
  C  C231  1  0.34749900  0.49673110  0.32293000  1
  C  C232  1  0.14923210  0.65250100  0.32293000  1
  C  C233  1  0.50326890  0.85076790  0.32293000  1
  C  C234  1  0.47571130  0.33393100  0.25093000  1
  C  C235  1  0.66606900  0.14178030  0.25093000  1
  C  C236  1  0.85821970  0.52428870  0.25093000  1
  C  C237  1  0.52428870  0.66606900  0.25093000  1
  C  C238  1  0.33393100  0.85821970  0.25093000  1
  C  C239  1  0.14178030  0.47571130  0.25093000  1
  C  C240  1  0.33393100  0.47571130  0.74907000  1
  C  C241  1  0.14178030  0.66606900  0.74907000  1
  C  C242  1  0.52428870  0.85821970  0.74907000  1
  C  C243  1  0.66606900  0.52428870  0.74907000  1
  C  C244  1  0.85821970  0.33393100  0.74907000  1
  C  C245  1  0.47571130  0.14178030  0.74907000  1
  C  C246  1  0.52428870  0.66606900  0.74907000  1
  C  C247  1  0.33393100  0.85821970  0.74907000  1
  C  C248  1  0.14178030  0.47571130  0.74907000  1
  C  C249  1  0.47571130  0.33393100  0.74907000  1
  C  C250  1  0.66606900  0.14178030  0.74907000  1
  C  C251  1  0.85821970  0.52428870  0.74907000  1
  C  C252  1  0.66606900  0.52428870  0.25093000  1
  C  C253  1  0.85821970  0.33393100  0.25093000  1
  C  C254  1  0.47571130  0.14178030  0.25093000  1
  C  C255  1  0.33393100  0.47571130  0.25093000  1
  C  C256  1  0.14178030  0.66606900  0.25093000  1
  C  C257  1  0.52428870  0.85821970  0.25093000  1
  C  C258  1  0.45909140  0.34773120  0.21894000  1
  C  C259  1  0.65226880  0.11136020  0.21894000  1
  C  C260  1  0.88863980  0.54090860  0.21894000  1
  C  C261  1  0.54090860  0.65226880  0.21894000  1
  C  C262  1  0.34773120  0.88863980  0.21894000  1
  C  C263  1  0.11136020  0.45909140  0.21894000  1
  C  C264  1  0.34773120  0.45909140  0.78106000  1
  C  C265  1  0.11136020  0.65226880  0.78106000  1
  C  C266  1  0.54090860  0.88863980  0.78106000  1
  C  C267  1  0.65226880  0.54090860  0.78106000  1
  C  C268  1  0.88863980  0.34773120  0.78106000  1
  C  C269  1  0.45909140  0.11136020  0.78106000  1
  C  C270  1  0.54090860  0.65226880  0.78106000  1
  C  C271  1  0.34773120  0.88863980  0.78106000  1
  C  C272  1  0.11136020  0.45909140  0.78106000  1
  C  C273  1  0.45909140  0.34773120  0.78106000  1
  C  C274  1  0.65226880  0.11136020  0.78106000  1
  C  C275  1  0.88863980  0.54090860  0.78106000  1
  C  C276  1  0.65226880  0.54090860  0.21894000  1
  C  C277  1  0.88863980  0.34773120  0.21894000  1
  C  C278  1  0.45909140  0.11136020  0.21894000  1
  C  C279  1  0.34773120  0.45909140  0.21894000  1
  C  C280  1  0.11136020  0.65226880  0.21894000  1
  C  C281  1  0.54090860  0.88863980  0.21894000  1
  H  H282  1  0.44436000  0.33826000  0.17420000  1
  H  H283  1  0.66174000  0.10610000  0.17420000  1
  H  H284  1  0.89390000  0.55564000  0.17420000  1
  H  H285  1  0.55564000  0.66174000  0.17420000  1
  H  H286  1  0.33826000  0.89390000  0.17420000  1
  H  H287  1  0.10610000  0.44436000  0.17420000  1
  H  H288  1  0.33826000  0.44436000  0.82580000  1
  H  H289  1  0.10610000  0.66174000  0.82580000  1
  H  H290  1  0.55564000  0.89390000  0.82580000  1
  H  H291  1  0.66174000  0.55564000  0.82580000  1
  H  H292  1  0.89390000  0.33826000  0.82580000  1
  H  H293  1  0.44436000  0.10610000  0.82580000  1
  H  H294  1  0.55564000  0.66174000  0.82580000  1
  H  H295  1  0.33826000  0.89390000  0.82580000  1
  H  H296  1  0.10610000  0.44436000  0.82580000  1
  H  H297  1  0.44436000  0.33826000  0.82580000  1
  H  H298  1  0.66174000  0.10610000  0.82580000  1
  H  H299  1  0.89390000  0.55564000  0.82580000  1
  H  H300  1  0.66174000  0.55564000  0.17420000  1
  H  H301  1  0.89390000  0.33826000  0.17420000  1
  H  H302  1  0.44436000  0.10610000  0.17420000  1
  H  H303  1  0.33826000  0.44436000  0.17420000  1
  H  H304  1  0.10610000  0.66174000  0.17420000  1
  H  H305  1  0.55564000  0.89390000  0.17420000  1
  C  C306  1  0.46482130  0.37481120  0.25374000  1
  C  C307  1  0.62518880  0.09001010  0.25374000  1
  C  C308  1  0.90998990  0.53517870  0.25374000  1
  C  C309  1  0.53517870  0.62518880  0.25374000  1
  C  C310  1  0.37481120  0.90998990  0.25374000  1
  C  C311  1  0.09001010  0.46482130  0.25374000  1
  C  C312  1  0.37481120  0.46482130  0.74626000  1
  C  C313  1  0.09001010  0.62518880  0.74626000  1
  C  C314  1  0.53517870  0.90998990  0.74626000  1
  C  C315  1  0.62518880  0.53517870  0.74626000  1
  C  C316  1  0.90998990  0.37481120  0.74626000  1
  C  C317  1  0.46482130  0.09001010  0.74626000  1
  C  C318  1  0.53517870  0.62518880  0.74626000  1
  C  C319  1  0.37481120  0.90998990  0.74626000  1
  C  C320  1  0.09001010  0.46482130  0.74626000  1
  C  C321  1  0.46482130  0.37481120  0.74626000  1
  C  C322  1  0.62518880  0.09001010  0.74626000  1
  C  C323  1  0.90998990  0.53517870  0.74626000  1
  C  C324  1  0.62518880  0.53517870  0.25374000  1
  C  C325  1  0.90998990  0.37481120  0.25374000  1
  C  C326  1  0.46482130  0.09001010  0.25374000  1
  C  C327  1  0.37481120  0.46482130  0.25374000  1
  C  C328  1  0.09001010  0.62518880  0.25374000  1
  C  C329  1  0.53517870  0.90998990  0.25374000  1
  H  H330  1  0.45444000  0.38424000  0.23095000  1
  H  H331  1  0.61576000  0.07020000  0.23095000  1
  H  H332  1  0.92980000  0.54556000  0.23095000  1
  H  H333  1  0.54556000  0.61576000  0.23095000  1
  H  H334  1  0.38424000  0.92980000  0.23095000  1
  H  H335  1  0.07020000  0.45444000  0.23095000  1
  H  H336  1  0.38424000  0.45444000  0.76905000  1
  H  H337  1  0.07020000  0.61576000  0.76905000  1
  H  H338  1  0.54556000  0.92980000  0.76905000  1
  H  H339  1  0.61576000  0.54556000  0.76905000  1
  H  H340  1  0.92980000  0.38424000  0.76905000  1
  H  H341  1  0.45444000  0.07020000  0.76905000  1
  H  H342  1  0.54556000  0.61576000  0.76905000  1
  H  H343  1  0.38424000  0.92980000  0.76905000  1
  H  H344  1  0.07020000  0.45444000  0.76905000  1
  H  H345  1  0.45444000  0.38424000  0.76905000  1
  H  H346  1  0.61576000  0.07020000  0.76905000  1
  H  H347  1  0.92980000  0.54556000  0.76905000  1
  H  H348  1  0.61576000  0.54556000  0.23095000  1
  H  H349  1  0.92980000  0.38424000  0.23095000  1
  H  H350  1  0.45444000  0.07020000  0.23095000  1
  H  H351  1  0.38424000  0.45444000  0.23095000  1
  H  H352  1  0.07020000  0.61576000  0.23095000  1
  H  H353  1  0.54556000  0.92980000  0.23095000  1
  C  C354  1  0.47326130  0.30729110  0.20873000  1
  C  C355  1  0.69270890  0.16597020  0.20873000  1
  C  C356  1  0.83402980  0.52673870  0.20873000  1
  C  C357  1  0.52673870  0.69270890  0.20873000  1
  C  C358  1  0.30729110  0.83402980  0.20873000  1
  C  C359  1  0.16597020  0.47326130  0.20873000  1
  C  C360  1  0.30729110  0.47326130  0.79127000  1
  C  C361  1  0.16597020  0.69270890  0.79127000  1
  C  C362  1  0.52673870  0.83402980  0.79127000  1
  C  C363  1  0.69270890  0.52673870  0.79127000  1
  C  C364  1  0.83402980  0.30729110  0.79127000  1
  C  C365  1  0.47326130  0.16597020  0.79127000  1
  C  C366  1  0.52673870  0.69270890  0.79127000  1
  C  C367  1  0.30729110  0.83402980  0.79127000  1
  C  C368  1  0.16597020  0.47326130  0.79127000  1
  C  C369  1  0.47326130  0.30729110  0.79127000  1
  C  C370  1  0.69270890  0.16597020  0.79127000  1
  C  C371  1  0.83402980  0.52673870  0.79127000  1
  C  C372  1  0.69270890  0.52673870  0.20873000  1
  C  C373  1  0.83402980  0.30729110  0.20873000  1
  C  C374  1  0.47326130  0.16597020  0.20873000  1
  C  C375  1  0.30729110  0.47326130  0.20873000  1
  C  C376  1  0.16597020  0.69270890  0.20873000  1
  C  C377  1  0.52673870  0.83402980  0.20873000  1
  H  H378  1  0.46037000  0.29879000  0.15928000  1
  H  H379  1  0.70121000  0.16158000  0.15928000  1
  H  H380  1  0.83842000  0.53963000  0.15928000  1
  H  H381  1  0.53963000  0.70121000  0.15928000  1
  H  H382  1  0.29879000  0.83842000  0.15928000  1
  H  H383  1  0.16158000  0.46037000  0.15928000  1
  H  H384  1  0.29879000  0.46037000  0.84072000  1
  H  H385  1  0.16158000  0.70121000  0.84072000  1
  H  H386  1  0.53963000  0.83842000  0.84072000  1
  H  H387  1  0.70121000  0.53963000  0.84072000  1
  H  H388  1  0.83842000  0.29879000  0.84072000  1
  H  H389  1  0.46037000  0.16158000  0.84072000  1
  H  H390  1  0.53963000  0.70121000  0.84072000  1
  H  H391  1  0.29879000  0.83842000  0.84072000  1
  H  H392  1  0.16158000  0.46037000  0.84072000  1
  H  H393  1  0.46037000  0.29879000  0.84072000  1
  H  H394  1  0.70121000  0.16158000  0.84072000  1
  H  H395  1  0.83842000  0.53963000  0.84072000  1
  H  H396  1  0.70121000  0.53963000  0.15928000  1
  H  H397  1  0.83842000  0.29879000  0.15928000  1
  H  H398  1  0.46037000  0.16158000  0.15928000  1
  H  H399  1  0.29879000  0.46037000  0.15928000  1
  H  H400  1  0.16158000  0.70121000  0.15928000  1
  H  H401  1  0.53963000  0.83842000  0.15928000  1
  C  C402  1  0.48947120  0.29409100  0.23953000  1
  C  C403  1  0.70590900  0.19538020  0.23953000  1
  C  C404  1  0.80461980  0.51052880  0.23953000  1
  C  C405  1  0.51052880  0.70590900  0.23953000  1
  C  C406  1  0.29409100  0.80461980  0.23953000  1
  C  C407  1  0.19538020  0.48947120  0.23953000  1
  C  C408  1  0.29409100  0.48947120  0.76047000  1
  C  C409  1  0.19538020  0.70590900  0.76047000  1
  C  C410  1  0.51052880  0.80461980  0.76047000  1
  C  C411  1  0.70590900  0.51052880  0.76047000  1
  C  C412  1  0.80461980  0.29409100  0.76047000  1
  C  C413  1  0.48947120  0.19538020  0.76047000  1
  C  C414  1  0.51052880  0.70590900  0.76047000  1
  C  C415  1  0.29409100  0.80461980  0.76047000  1
  C  C416  1  0.19538020  0.48947120  0.76047000  1
  C  C417  1  0.48947120  0.29409100  0.76047000  1
  C  C418  1  0.70590900  0.19538020  0.76047000  1
  C  C419  1  0.80461980  0.51052880  0.76047000  1
  C  C420  1  0.70590900  0.51052880  0.23953000  1
  C  C421  1  0.80461980  0.29409100  0.23953000  1
  C  C422  1  0.48947120  0.19538020  0.23953000  1
  C  C423  1  0.29409100  0.48947120  0.23953000  1
  C  C424  1  0.19538020  0.70590900  0.23953000  1
  C  C425  1  0.51052880  0.80461980  0.23953000  1
  C  C426  1  0.50871120  0.30697900  0.31383000  1
  C  C427  1  0.69302100  0.20173220  0.31383000  1
  C  C428  1  0.79826780  0.49128880  0.31383000  1
  C  C429  1  0.49128880  0.69302100  0.31383000  1
  C  C430  1  0.30697900  0.79826780  0.31383000  1
  C  C431  1  0.20173220  0.50871120  0.31383000  1
  C  C432  1  0.30697900  0.50871120  0.68617000  1
  C  C433  1  0.20173220  0.69302100  0.68617000  1
  C  C434  1  0.49128880  0.79826780  0.68617000  1
  C  C435  1  0.69302100  0.49128880  0.68617000  1
  C  C436  1  0.79826780  0.30697900  0.68617000  1
  C  C437  1  0.50871120  0.20173220  0.68617000  1
  C  C438  1  0.49128880  0.69302100  0.68617000  1
  C  C439  1  0.30697900  0.79826780  0.68617000  1
  C  C440  1  0.20173220  0.50871120  0.68617000  1
  C  C441  1  0.50871120  0.30697900  0.68617000  1
  C  C442  1  0.69302100  0.20173220  0.68617000  1
  C  C443  1  0.79826780  0.49128880  0.68617000  1
  C  C444  1  0.69302100  0.49128880  0.31383000  1
  C  C445  1  0.79826780  0.30697900  0.31383000  1
  C  C446  1  0.50871120  0.20173220  0.31383000  1
  C  C447  1  0.30697900  0.50871120  0.31383000  1
  C  C448  1  0.20173220  0.69302100  0.31383000  1
  C  C449  1  0.49128880  0.79826780  0.31383000  1
  H  H450  1  0.51864000  0.29721000  0.33748000  1
  H  H451  1  0.70279000  0.22143000  0.33748000  1
  H  H452  1  0.77857000  0.48136000  0.33748000  1
  H  H453  1  0.48136000  0.70279000  0.33748000  1
  H  H454  1  0.29721000  0.77857000  0.33748000  1
  H  H455  1  0.22143000  0.51864000  0.33748000  1
  H  H456  1  0.29721000  0.51864000  0.66252000  1
  H  H457  1  0.22143000  0.70279000  0.66252000  1
  H  H458  1  0.48136000  0.77857000  0.66252000  1
  H  H459  1  0.70279000  0.48136000  0.66252000  1
  H  H460  1  0.77857000  0.29721000  0.66252000  1
  H  H461  1  0.51864000  0.22143000  0.66252000  1
  H  H462  1  0.48136000  0.70279000  0.66252000  1
  H  H463  1  0.29721000  0.77857000  0.66252000  1
  H  H464  1  0.22143000  0.51864000  0.66252000  1
  H  H465  1  0.51864000  0.29721000  0.66252000  1
  H  H466  1  0.70279000  0.22143000  0.66252000  1
  H  H467  1  0.77857000  0.48136000  0.66252000  1
  H  H468  1  0.70279000  0.48136000  0.33748000  1
  H  H469  1  0.77857000  0.29721000  0.33748000  1
  H  H470  1  0.51864000  0.22143000  0.33748000  1
  H  H471  1  0.29721000  0.51864000  0.33748000  1
  H  H472  1  0.22143000  0.70279000  0.33748000  1
  H  H473  1  0.48136000  0.77857000  0.33748000  1
  C  C474  1  0.51341110  0.33352900  0.35273000  1
  C  C475  1  0.66647100  0.17988210  0.35273000  1
  C  C476  1  0.82011790  0.48658890  0.35273000  1
  C  C477  1  0.48658890  0.66647100  0.35273000  1
  C  C478  1  0.33352900  0.82011790  0.35273000  1
  C  C479  1  0.17988210  0.51341110  0.35273000  1
  C  C480  1  0.33352900  0.51341110  0.64727000  1
  C  C481  1  0.17988210  0.66647100  0.64727000  1
  C  C482  1  0.48658890  0.82011790  0.64727000  1
  C  C483  1  0.66647100  0.48658890  0.64727000  1
  C  C484  1  0.82011790  0.33352900  0.64727000  1
  C  C485  1  0.51341110  0.17988210  0.64727000  1
  C  C486  1  0.48658890  0.66647100  0.64727000  1
  C  C487  1  0.33352900  0.82011790  0.64727000  1
  C  C488  1  0.17988210  0.51341110  0.64727000  1
  C  C489  1  0.51341110  0.33352900  0.64727000  1
  C  C490  1  0.66647100  0.17988210  0.64727000  1
  C  C491  1  0.82011790  0.48658890  0.64727000  1
  C  C492  1  0.66647100  0.48658890  0.35273000  1
  C  C493  1  0.82011790  0.33352900  0.35273000  1
  C  C494  1  0.51341110  0.17988210  0.35273000  1
  C  C495  1  0.33352900  0.51341110  0.35273000  1
  C  C496  1  0.17988210  0.66647100  0.35273000  1
  C  C497  1  0.48658890  0.82011790  0.35273000  1
  H  H498  1  0.52763000  0.34242000  0.39900000  1
  H  H499  1  0.65758000  0.18521000  0.39900000  1
  H  H500  1  0.81479000  0.47237000  0.39900000  1
  H  H501  1  0.47237000  0.65758000  0.39900000  1
  H  H502  1  0.34242000  0.81479000  0.39900000  1
  H  H503  1  0.18521000  0.52763000  0.39900000  1
  H  H504  1  0.34242000  0.52763000  0.60100000  1
  H  H505  1  0.18521000  0.65758000  0.60100000  1
  H  H506  1  0.47237000  0.81479000  0.60100000  1
  H  H507  1  0.65758000  0.47237000  0.60100000  1
  H  H508  1  0.81479000  0.34242000  0.60100000  1
  H  H509  1  0.52763000  0.18521000  0.60100000  1
  H  H510  1  0.47237000  0.65758000  0.60100000  1
  H  H511  1  0.34242000  0.81479000  0.60100000  1
  H  H512  1  0.18521000  0.52763000  0.60100000  1
  H  H513  1  0.52763000  0.34242000  0.60100000  1
  H  H514  1  0.65758000  0.18521000  0.60100000  1
  H  H515  1  0.81479000  0.47237000  0.60100000  1
  H  H516  1  0.65758000  0.47237000  0.39900000  1
  H  H517  1  0.81479000  0.34242000  0.39900000  1
  H  H518  1  0.52763000  0.18521000  0.39900000  1
  H  H519  1  0.34242000  0.52763000  0.39900000  1
  H  H520  1  0.18521000  0.65758000  0.39900000  1
  H  H521  1  0.47237000  0.81479000  0.39900000  1
  C  C522  1  0.48764120  0.26767900  0.19133000  1
  C  C523  1  0.73232100  0.21996220  0.19133000  1
  C  C524  1  0.78003780  0.51235880  0.19133000  1
  C  C525  1  0.51235880  0.73232100  0.19133000  1
  C  C526  1  0.26767900  0.78003780  0.19133000  1
  C  C527  1  0.21996220  0.48764120  0.19133000  1
  C  C528  1  0.26767900  0.48764120  0.80867000  1
  C  C529  1  0.21996220  0.73232100  0.80867000  1
  C  C530  1  0.51235880  0.78003780  0.80867000  1
  C  C531  1  0.73232100  0.51235880  0.80867000  1
  C  C532  1  0.78003780  0.26767900  0.80867000  1
  C  C533  1  0.48764120  0.21996220  0.80867000  1
  C  C534  1  0.51235880  0.73232100  0.80867000  1
  C  C535  1  0.26767900  0.78003780  0.80867000  1
  C  C536  1  0.21996220  0.48764120  0.80867000  1
  C  C537  1  0.48764120  0.26767900  0.80867000  1
  C  C538  1  0.73232100  0.21996220  0.80867000  1
  C  C539  1  0.78003780  0.51235880  0.80867000  1
  C  C540  1  0.73232100  0.51235880  0.19133000  1
  C  C541  1  0.78003780  0.26767900  0.19133000  1
  C  C542  1  0.48764120  0.21996220  0.19133000  1
  C  C543  1  0.26767900  0.48764120  0.19133000  1
  C  C544  1  0.21996220  0.73232100  0.19133000  1
  C  C545  1  0.51235880  0.78003780  0.19133000  1
  C  C546  1  0.48873160  0.24436800  0.23684000  1
  C  C547  1  0.75563200  0.24436360  0.23684000  1
  C  C548  1  0.75563640  0.51126840  0.23684000  1
  C  C549  1  0.51126840  0.75563200  0.23684000  1
  C  C550  1  0.24436800  0.75563640  0.23684000  1
  C  C551  1  0.24436360  0.48873160  0.23684000  1
  C  C552  1  0.24436800  0.48873160  0.76316000  1
  C  C553  1  0.24436360  0.75563200  0.76316000  1
  C  C554  1  0.51126840  0.75563640  0.76316000  1
  C  C555  1  0.75563200  0.51126840  0.76316000  1
  C  C556  1  0.75563640  0.24436800  0.76316000  1
  C  C557  1  0.48873160  0.24436360  0.76316000  1
  H  H558  1  0.49022000  0.24511000  0.29938000  1
  H  H559  1  0.75489000  0.24511000  0.29938000  1
  H  H560  1  0.75489000  0.50978000  0.29938000  1
  H  H561  1  0.50978000  0.75489000  0.29938000  1
  H  H562  1  0.24511000  0.75489000  0.29938000  1
  H  H563  1  0.24511000  0.49022000  0.29938000  1
  H  H564  1  0.24511000  0.49022000  0.70062000  1
  H  H565  1  0.24511000  0.75489000  0.70062000  1
  H  H566  1  0.50978000  0.75489000  0.70062000  1
  H  H567  1  0.75489000  0.50978000  0.70062000  1
  H  H568  1  0.75489000  0.24511000  0.70062000  1
  H  H569  1  0.49022000  0.24511000  0.70062000  1
  C  C570  1  0.48539120  0.26588800  0.09943000  1
  C  C571  1  0.73411200  0.21950320  0.09943000  1
  C  C572  1  0.78049680  0.51460880  0.09943000  1
  C  C573  1  0.51460880  0.73411200  0.09943000  1
  C  C574  1  0.26588800  0.78049680  0.09943000  1
  C  C575  1  0.21950320  0.48539120  0.09943000  1
  C  C576  1  0.26588800  0.48539120  0.90057000  1
  C  C577  1  0.21950320  0.73411200  0.90057000  1
  C  C578  1  0.51460880  0.78049680  0.90057000  1
  C  C579  1  0.73411200  0.51460880  0.90057000  1
  C  C580  1  0.78049680  0.26588800  0.90057000  1
  C  C581  1  0.48539120  0.21950320  0.90057000  1
  C  C582  1  0.51460880  0.73411200  0.90057000  1
  C  C583  1  0.26588800  0.78049680  0.90057000  1
  C  C584  1  0.21950320  0.48539120  0.90057000  1
  C  C585  1  0.48539120  0.26588800  0.90057000  1
  C  C586  1  0.73411200  0.21950320  0.90057000  1
  C  C587  1  0.78049680  0.51460880  0.90057000  1
  C  C588  1  0.73411200  0.51460880  0.09943000  1
  C  C589  1  0.78049680  0.26588800  0.09943000  1
  C  C590  1  0.48539120  0.21950320  0.09943000  1
  C  C591  1  0.26588800  0.48539120  0.09943000  1
  C  C592  1  0.21950320  0.73411200  0.09943000  1
  C  C593  1  0.51460880  0.78049680  0.09943000  1
  H  H594  1  0.48423000  0.28132000  0.06863000  1
  H  H595  1  0.71868000  0.20291000  0.06863000  1
  H  H596  1  0.79709000  0.51577000  0.06863000  1
  H  H597  1  0.51577000  0.71868000  0.06863000  1
  H  H598  1  0.28132000  0.79709000  0.06863000  1
  H  H599  1  0.20291000  0.48423000  0.06863000  1
  H  H600  1  0.28132000  0.48423000  0.93137000  1
  H  H601  1  0.20291000  0.71868000  0.93137000  1
  H  H602  1  0.51577000  0.79709000  0.93137000  1
  H  H603  1  0.71868000  0.51577000  0.93137000  1
  H  H604  1  0.79709000  0.28132000  0.93137000  1
  H  H605  1  0.48423000  0.20291000  0.93137000  1
  H  H606  1  0.51577000  0.71868000  0.93137000  1
  H  H607  1  0.28132000  0.79709000  0.93137000  1
  H  H608  1  0.20291000  0.48423000  0.93137000  1
  H  H609  1  0.48423000  0.28132000  0.93137000  1
  H  H610  1  0.71868000  0.20291000  0.93137000  1
  H  H611  1  0.79709000  0.51577000  0.93137000  1
  H  H612  1  0.71868000  0.51577000  0.06863000  1
  H  H613  1  0.79709000  0.28132000  0.06863000  1
  H  H614  1  0.48423000  0.20291000  0.06863000  1
  H  H615  1  0.28132000  0.48423000  0.06863000  1
  H  H616  1  0.20291000  0.71868000  0.06863000  1
  H  H617  1  0.51577000  0.79709000  0.06863000  1
  C  C618  1  0.48474150  0.24237800  0.04944000  1
  C  C619  1  0.75762200  0.24236350  0.04944000  1
  C  C620  1  0.75763650  0.51525850  0.04944000  1
  C  C621  1  0.51525850  0.75762200  0.04944000  1
  C  C622  1  0.24237800  0.75763650  0.04944000  1
  C  C623  1  0.24236350  0.48474150  0.04944000  1
  C  C624  1  0.24237800  0.48474150  0.95056000  1
  C  C625  1  0.24236350  0.75762200  0.95056000  1
  C  C626  1  0.51525850  0.75763650  0.95056000  1
  C  C627  1  0.75762200  0.51525850  0.95056000  1
  C  C628  1  0.75763650  0.24237800  0.95056000  1
  C  C629  1  0.48474150  0.24236350  0.95056000  1
