# generated using pymatgen
data_Zn4H24C42O13
_symmetry_space_group_name_H-M   'P 1'
_cell_length_a   24.24011614
_cell_length_b   24.24011614
_cell_length_c   24.24011614
_cell_angle_alpha   60.00000000
_cell_angle_beta   60.00000000
_cell_angle_gamma   60.00000000
_symmetry_Int_Tables_number   1
_chemical_formula_structural   Zn4H24C42O13
_chemical_formula_sum   'Zn8 H48 C84 O26'
_cell_volume   10071.38251913
_cell_formula_units_Z   2
loop_
 _symmetry_equiv_pos_site_id
 _symmetry_equiv_pos_as_xyz
  1  'x, y, z'
loop_
 _atom_site_type_symbol
 _atom_site_label
 _atom_site_symmetry_multiplicity
 _atom_site_fract_x
 _atom_site_fract_y
 _atom_site_fract_z
 _atom_site_occupancy
  C  C1  1  0.64483000  0.85517000  0.85517000  1.0
  C  C3  1  0.85517000  0.64483000  0.64483000  1.0
  C  C5  1  0.85517000  0.85517000  0.64483000  1.0
  C  C7  1  0.64483000  0.64483000  0.85517000  1.0
  C  C9  1  0.85517000  0.64483000  0.85517000  1.0
  C  C11  1  0.64483000  0.85517000  0.64483000  1.0
  C  C13  1  0.35517000  0.14483000  0.14483000  1.0
  C  C15  1  0.14483000  0.35517000  0.35517000  1.0
  C  C17  1  0.35517000  0.14483000  0.35517000  1.0
  C  C19  1  0.14483000  0.35517000  0.14483000  1.0
  C  C21  1  0.35517000  0.35517000  0.14483000  1.0
  C  C23  1  0.14483000  0.14483000  0.35517000  1.0
  C  C49  1  0.60278000  0.89722000  0.89722000  1.0
  C  C51  1  0.89722000  0.60278000  0.60278000  1.0
  C  C53  1  0.89722000  0.89722000  0.60278000  1.0
  C  C55  1  0.60278000  0.60278000  0.89722000  1.0
  C  C57  1  0.89722000  0.60278000  0.89722000  1.0
  C  C59  1  0.60278000  0.89722000  0.60278000  1.0
  C  C61  1  0.39722000  0.10278000  0.10278000  1.0
  C  C63  1  0.10278000  0.39722000  0.39722000  1.0
  C  C65  1  0.39722000  0.10278000  0.39722000  1.0
  C  C67  1  0.10278000  0.39722000  0.10278000  1.0
  C  C69  1  0.39722000  0.39722000  0.10278000  1.0
  C  C71  1  0.10278000  0.10278000  0.39722000  1.0
  C  C97  1  0.58221000  0.86831000  0.96727000  1.0
  C  C98  1  0.58221000  0.96727000  0.86831000  1.0
  C  C99  1  0.96727000  0.58221000  0.58221000  1.0
  C  C100  1  0.86831000  0.58221000  0.58221000  1.0
  C  C101  1  0.86831000  0.96727000  0.58221000  1.0
  C  C102  1  0.96727000  0.86831000  0.58221000  1.0
  C  C103  1  0.58221000  0.58221000  0.96727000  1.0
  C  C104  1  0.58221000  0.58221000  0.86831000  1.0
  C  C105  1  0.96727000  0.58221000  0.86831000  1.0
  C  C106  1  0.86831000  0.58221000  0.96727000  1.0
  C  C107  1  0.58221000  0.96727000  0.58221000  1.0
  C  C108  1  0.58221000  0.86831000  0.58221000  1.0
  C  C109  1  0.41779000  0.13169000  0.03273000  1.0
  C  C110  1  0.41779000  0.03273000  0.13169000  1.0
  C  C111  1  0.13169000  0.41779000  0.41779000  1.0
  C  C112  1  0.03273000  0.41779000  0.41779000  1.0
  C  C113  1  0.41779000  0.03273000  0.41779000  1.0
  C  C114  1  0.41779000  0.13169000  0.41779000  1.0
  C  C115  1  0.13169000  0.41779000  0.03273000  1.0
  C  C116  1  0.03273000  0.41779000  0.13169000  1.0
  C  C117  1  0.41779000  0.41779000  0.13169000  1.0
  C  C118  1  0.41779000  0.41779000  0.03273000  1.0
  C  C119  1  0.13169000  0.03273000  0.41779000  1.0
  C  C120  1  0.03273000  0.13169000  0.41779000  1.0
  C  C193  1  0.54130000  0.90876000  0.00864000  1.0
  C  C194  1  0.54130000  0.00864000  0.90876000  1.0
  C  C195  1  0.00864000  0.54130000  0.54130000  1.0
  C  C196  1  0.90876000  0.54130000  0.54130000  1.0
  C  C197  1  0.90876000  0.00864000  0.54130000  1.0
  C  C198  1  0.00864000  0.90876000  0.54130000  1.0
  C  C199  1  0.54130000  0.54130000  0.00864000  1.0
  C  C200  1  0.54130000  0.54130000  0.90876000  1.0
  C  C201  1  0.00864000  0.54130000  0.90876000  1.0
  C  C202  1  0.90876000  0.54130000  0.00864000  1.0
  C  C203  1  0.54130000  0.00864000  0.54130000  1.0
  C  C204  1  0.54130000  0.90876000  0.54130000  1.0
  C  C205  1  0.45870000  0.09124000  0.99136000  1.0
  C  C206  1  0.45870000  0.99136000  0.09124000  1.0
  C  C207  1  0.09124000  0.45870000  0.45870000  1.0
  C  C208  1  0.99136000  0.45870000  0.45870000  1.0
  C  C209  1  0.45870000  0.99136000  0.45870000  1.0
  C  C210  1  0.45870000  0.09124000  0.45870000  1.0
  C  C211  1  0.09124000  0.45870000  0.99136000  1.0
  C  C212  1  0.99136000  0.45870000  0.09124000  1.0
  C  C213  1  0.45870000  0.45870000  0.09124000  1.0
  C  C214  1  0.45870000  0.45870000  0.99136000  1.0
  C  C215  1  0.09124000  0.99136000  0.45870000  1.0
  C  C216  1  0.99136000  0.09124000  0.45870000  1.0
  C  C289  1  0.52061000  0.97939000  0.97939000  1.0
  C  C291  1  0.97939000  0.52061000  0.52061000  1.0
  C  C293  1  0.97939000  0.97939000  0.52061000  1.0
  C  C295  1  0.52061000  0.52061000  0.97939000  1.0
  C  C297  1  0.97939000  0.52061000  0.97939000  1.0
  C  C299  1  0.52061000  0.97939000  0.52061000  1.0
  C  C301  1  0.47939000  0.02061000  0.02061000  1.0
  C  C303  1  0.02061000  0.47939000  0.47939000  1.0
  C  C305  1  0.47939000  0.02061000  0.47939000  1.0
  C  C307  1  0.02061000  0.47939000  0.02061000  1.0
  C  C309  1  0.47939000  0.47939000  0.02061000  1.0
  C  C311  1  0.02061000  0.02061000  0.47939000  1.0
  H  H1  1  0.59621000  0.82001000  0.98757000  1.0
  H  H2  1  0.59621000  0.98757000  0.82001000  1.0
  H  H3  1  0.98757000  0.59621000  0.59621000  1.0
  H  H4  1  0.82001000  0.59621000  0.59621000  1.0
  H  H5  1  0.82001000  0.98757000  0.59621000  1.0
  H  H6  1  0.98757000  0.82001000  0.59621000  1.0
  H  H7  1  0.59621000  0.59621000  0.98757000  1.0
  H  H8  1  0.59621000  0.59621000  0.82001000  1.0
  H  H9  1  0.98757000  0.59621000  0.82001000  1.0
  H  H10  1  0.82001000  0.59621000  0.98757000  1.0
  H  H11  1  0.59621000  0.98757000  0.59621000  1.0
  H  H12  1  0.59621000  0.82001000  0.59621000  1.0
  H  H13  1  0.40379000  0.17999000  0.01243000  1.0
  H  H14  1  0.40379000  0.01243000  0.17999000  1.0
  H  H15  1  0.17999000  0.40379000  0.40379000  1.0
  H  H16  1  0.01243000  0.40379000  0.40379000  1.0
  H  H17  1  0.40379000  0.01243000  0.40379000  1.0
  H  H18  1  0.40379000  0.17999000  0.40379000  1.0
  H  H19  1  0.17999000  0.40379000  0.01243000  1.0
  H  H20  1  0.01243000  0.40379000  0.17999000  1.0
  H  H21  1  0.40379000  0.40379000  0.17999000  1.0
  H  H22  1  0.40379000  0.40379000  0.01243000  1.0
  H  H23  1  0.17999000  0.01243000  0.40379000  1.0
  H  H24  1  0.01243000  0.17999000  0.40379000  1.0
  H  H97  1  0.52747000  0.88815000  0.05691000  1.0
  H  H98  1  0.52747000  0.05691000  0.88815000  1.0
  H  H99  1  0.05691000  0.52747000  0.52747000  1.0
  H  H100  1  0.88815000  0.52747000  0.52747000  1.0
  H  H101  1  0.88815000  0.05691000  0.52747000  1.0
  H  H102  1  0.05691000  0.88815000  0.52747000  1.0
  H  H103  1  0.52747000  0.52747000  0.05691000  1.0
  H  H104  1  0.52747000  0.52747000  0.88815000  1.0
  H  H105  1  0.05691000  0.52747000  0.88815000  1.0
  H  H106  1  0.88815000  0.52747000  0.05691000  1.0
  H  H107  1  0.52747000  0.05691000  0.52747000  1.0
  H  H108  1  0.52747000  0.88815000  0.52747000  1.0
  H  H109  1  0.47253000  0.11185000  0.94309000  1.0
  H  H110  1  0.47253000  0.94309000  0.11185000  1.0
  H  H111  1  0.11185000  0.47253000  0.47253000  1.0
  H  H112  1  0.94309000  0.47253000  0.47253000  1.0
  H  H113  1  0.47253000  0.94309000  0.47253000  1.0
  H  H114  1  0.47253000  0.11185000  0.47253000  1.0
  H  H115  1  0.11185000  0.47253000  0.94309000  1.0
  H  H116  1  0.94309000  0.47253000  0.11185000  1.0
  H  H117  1  0.47253000  0.47253000  0.11185000  1.0
  H  H118  1  0.47253000  0.47253000  0.94309000  1.0
  H  H119  1  0.11185000  0.94309000  0.47253000  1.0
  H  H120  1  0.94309000  0.11185000  0.47253000  1.0
  O  O1  1  0.75000000  0.75000000  0.75000000  1.0
  O  O5  1  0.25000000  0.25000000  0.25000000  1.0
  O  O9  1  0.66179000  0.79117000  0.88525000  1.0
  O  O10  1  0.66179000  0.88525000  0.79117000  1.0
  O  O11  1  0.88525000  0.66179000  0.66179000  1.0
  O  O12  1  0.79117000  0.66179000  0.66179000  1.0
  O  O13  1  0.79117000  0.88525000  0.66179000  1.0
  O  O14  1  0.88525000  0.79117000  0.66179000  1.0
  O  O15  1  0.66179000  0.66179000  0.88525000  1.0
  O  O16  1  0.66179000  0.66179000  0.79117000  1.0
  O  O17  1  0.88525000  0.66179000  0.79117000  1.0
  O  O18  1  0.79117000  0.66179000  0.88525000  1.0
  O  O19  1  0.66179000  0.88525000  0.66179000  1.0
  O  O20  1  0.66179000  0.79117000  0.66179000  1.0
  O  O21  1  0.33821000  0.20883000  0.11475000  1.0
  O  O22  1  0.33821000  0.11475000  0.20883000  1.0
  O  O23  1  0.20883000  0.33821000  0.33821000  1.0
  O  O24  1  0.11475000  0.33821000  0.33821000  1.0
  O  O25  1  0.33821000  0.11475000  0.33821000  1.0
  O  O26  1  0.33821000  0.20883000  0.33821000  1.0
  O  O27  1  0.20883000  0.33821000  0.11475000  1.0
  O  O28  1  0.11475000  0.33821000  0.20883000  1.0
  O  O29  1  0.33821000  0.33821000  0.20883000  1.0
  O  O30  1  0.33821000  0.33821000  0.11475000  1.0
  O  O31  1  0.20883000  0.11475000  0.33821000  1.0
  O  O32  1  0.11475000  0.20883000  0.33821000  1.0
  Zn  Zn1  1  0.71723000  0.71723000  0.84831000  1.0
  Zn  Zn2  1  0.71723000  0.84831000  0.71723000  1.0
  Zn  Zn3  1  0.84831000  0.71723000  0.71723000  1.0
  Zn  Zn4  1  0.71723000  0.71723000  0.71723000  1.0
  Zn  Zn13  1  0.28277000  0.28277000  0.15169000  1.0
  Zn  Zn14  1  0.28277000  0.15169000  0.28277000  1.0
  Zn  Zn15  1  0.28277000  0.28277000  0.28277000  1.0
  Zn  Zn16  1  0.15169000  0.28277000  0.28277000  1.0
