# generated using pymatgen
data_EuH17C15(NO4)2
_symmetry_space_group_name_H-M   'P 1'
_cell_length_a   18.80576000
_cell_length_b   11.41274000
_cell_length_c   19.84417000
_cell_angle_alpha   90.00000000
_cell_angle_beta   106.37410000
_cell_angle_gamma   90.00000000
_symmetry_Int_Tables_number   1
_chemical_formula_structural   EuH17C15(NO4)2
_chemical_formula_sum   'Eu8 H136 C120 N16 O64'
_cell_volume   4086.31887921
_cell_formula_units_Z   8
loop_
 _symmetry_equiv_pos_site_id
 _symmetry_equiv_pos_as_xyz
  1  'x, y, z'
loop_
 _atom_site_type_symbol
 _atom_site_label
 _atom_site_symmetry_multiplicity
 _atom_site_fract_x
 _atom_site_fract_y
 _atom_site_fract_z
 _atom_site_occupancy
  Eu  Eu0  1  0.92515800  0.17377200  0.41726200  1
  Eu  Eu1  1  0.07484200  0.17377200  0.08273800  1
  Eu  Eu2  1  0.42515800  0.67377200  0.41726200  1
  Eu  Eu3  1  0.57484200  0.67377200  0.08273800  1
  Eu  Eu4  1  0.07484200  0.82622800  0.58273800  1
  Eu  Eu5  1  0.92515800  0.82622800  0.91726200  1
  Eu  Eu6  1  0.57484200  0.32622800  0.58273800  1
  Eu  Eu7  1  0.42515800  0.32622800  0.91726200  1
  O  O8  1  0.02728110  0.05292000  0.43414110  1
  O  O9  1  0.97271890  0.05292000  0.06585890  1
  O  O10  1  0.52728110  0.55292000  0.43414110  1
  O  O11  1  0.47271890  0.55292000  0.06585890  1
  O  O12  1  0.97271890  0.94708000  0.56585890  1
  O  O13  1  0.02728110  0.94708000  0.93414110  1
  O  O14  1  0.47271890  0.44708000  0.56585890  1
  O  O15  1  0.52728110  0.44708000  0.93414110  1
  O  O16  1  0.11744110  0.97039820  0.51836100  1
  O  O17  1  0.88255890  0.97039820  0.98163900  1
  O  O18  1  0.61744110  0.47039820  0.51836100  1
  O  O19  1  0.38255890  0.47039820  0.98163900  1
  O  O20  1  0.88255890  0.02960180  0.48163900  1
  O  O21  1  0.11744110  0.02960180  0.01836100  1
  O  O22  1  0.38255890  0.52960180  0.48163900  1
  O  O23  1  0.61744110  0.52960180  0.01836100  1
  O  O24  1  0.32748140  0.78178000  0.44953120  1
  O  O25  1  0.67251860  0.78178000  0.05046880  1
  O  O26  1  0.82748140  0.28178000  0.44953120  1
  O  O27  1  0.17251860  0.28178000  0.05046880  1
  O  O28  1  0.67251860  0.21822000  0.55046880  1
  O  O29  1  0.32748140  0.21822000  0.94953120  1
  O  O30  1  0.17251860  0.71822000  0.55046880  1
  O  O31  1  0.82748140  0.71822000  0.94953120  1
  O  O32  1  0.34255130  0.82018000  0.34701110  1
  O  O33  1  0.65744870  0.82018000  0.15298890  1
  O  O34  1  0.84255130  0.32018000  0.34701110  1
  O  O35  1  0.15744870  0.32018000  0.15298890  1
  O  O36  1  0.65744870  0.17982000  0.65298890  1
  O  O37  1  0.34255130  0.17982000  0.84701110  1
  O  O38  1  0.15744870  0.67982000  0.65298890  1
  O  O39  1  0.84255130  0.67982000  0.84701110  1
  O  O40  1  0.15188120  0.04512000  0.17079110  1
  O  O41  1  0.84811880  0.04512000  0.32920890  1
  O  O42  1  0.65188120  0.54512000  0.17079110  1
  O  O43  1  0.34811880  0.54512000  0.32920890  1
  O  O44  1  0.84811880  0.95488000  0.82920890  1
  O  O45  1  0.15188120  0.95488000  0.67079110  1
  O  O46  1  0.34811880  0.45488000  0.82920890  1
  O  O47  1  0.65188120  0.45488000  0.67079110  1
  O  O48  1  0.06896100  0.14882170  0.20484100  1
  O  O49  1  0.93103900  0.14882170  0.29515900  1
  O  O50  1  0.56896100  0.64882170  0.20484100  1
  O  O51  1  0.43103900  0.64882170  0.29515900  1
  O  O52  1  0.93103900  0.85117830  0.79515900  1
  O  O53  1  0.06896100  0.85117830  0.70484100  1
  O  O54  1  0.43103900  0.35117830  0.79515900  1
  O  O55  1  0.56896100  0.35117830  0.70484100  1
  C  C88  1  0.08995150  0.00673000  0.45667140  1
  C  C89  1  0.91004850  0.00673000  0.04332860  1
  C  C90  1  0.58995150  0.50673000  0.45667140  1
  C  C91  1  0.41004850  0.50673000  0.04332860  1
  C  C92  1  0.91004850  0.99327000  0.54332860  1
  C  C93  1  0.08995150  0.99327000  0.95667140  1
  C  C94  1  0.41004850  0.49327000  0.54332860  1
  C  C95  1  0.58995150  0.49327000  0.95667140  1
  C  C96  1  0.13510150  0.99278000  0.40514140  1
  C  C97  1  0.86489850  0.99278000  0.09485860  1
  C  C98  1  0.63510150  0.49278000  0.40514140  1
  C  C99  1  0.36489850  0.49278000  0.09485860  1
  C  C100  1  0.86489850  0.00722000  0.59485860  1
  C  C101  1  0.13510150  0.00722000  0.90514140  1
  C  C102  1  0.36489850  0.50722000  0.59485860  1
  C  C103  1  0.63510150  0.50722000  0.90514140  1
  C  C104  1  0.19916150  0.92457000  0.42286150  1
  C  C105  1  0.80083850  0.92457000  0.07713850  1
  C  C106  1  0.69916150  0.42457000  0.42286150  1
  C  C107  1  0.30083850  0.42457000  0.07713850  1
  C  C108  1  0.80083850  0.07543000  0.57713850  1
  C  C109  1  0.19916150  0.07543000  0.92286150  1
  C  C110  1  0.30083850  0.57543000  0.57713850  1
  C  C111  1  0.69916150  0.57543000  0.92286150  1
  H  H112  1  0.21565000  0.88949000  0.46801000  1
  H  H113  1  0.78435000  0.88949000  0.03199000  1
  H  H114  1  0.71565000  0.38949000  0.46801000  1
  H  H115  1  0.28435000  0.38949000  0.03199000  1
  H  H116  1  0.78435000  0.11051000  0.53199000  1
  H  H117  1  0.21565000  0.11051000  0.96801000  1
  H  H118  1  0.28435000  0.61051000  0.53199000  1
  H  H119  1  0.71565000  0.61051000  0.96801000  1
  C  C120  1  0.23871150  0.90807000  0.37417150  1
  C  C121  1  0.76128850  0.90807000  0.12582850  1
  C  C122  1  0.73871150  0.40807000  0.37417150  1
  C  C123  1  0.26128850  0.40807000  0.12582850  1
  C  C124  1  0.76128850  0.09193000  0.62582850  1
  C  C125  1  0.23871150  0.09193000  0.87417150  1
  C  C126  1  0.26128850  0.59193000  0.62582850  1
  C  C127  1  0.73871150  0.59193000  0.87417150  1
  C  C128  1  0.21476150  0.95947000  0.30789140  1
  C  C129  1  0.78523850  0.95947000  0.19210860  1
  C  C130  1  0.71476150  0.45947000  0.30789140  1
  C  C131  1  0.28523850  0.45947000  0.19210860  1
  C  C132  1  0.78523850  0.04053000  0.69210860  1
  C  C133  1  0.21476150  0.04053000  0.80789140  1
  C  C134  1  0.28523850  0.54053000  0.69210860  1
  C  C135  1  0.71476150  0.54053000  0.80789140  1
  H  H136  1  0.24225000  0.94849000  0.27489000  1
  H  H137  1  0.75775000  0.94849000  0.22511000  1
  H  H138  1  0.74225000  0.44849000  0.27489000  1
  H  H139  1  0.25775000  0.44849000  0.22511000  1
  H  H140  1  0.75775000  0.05151000  0.72511000  1
  H  H141  1  0.24225000  0.05151000  0.77489000  1
  H  H142  1  0.25775000  0.55151000  0.72511000  1
  H  H143  1  0.74225000  0.55151000  0.77489000  1
  C  C144  1  0.15046150  0.02693000  0.29016140  1
  C  C145  1  0.84953850  0.02693000  0.20983860  1
  C  C146  1  0.65046150  0.52693000  0.29016140  1
  C  C147  1  0.34953850  0.52693000  0.20983860  1
  C  C148  1  0.84953850  0.97307000  0.70983860  1
  C  C149  1  0.15046150  0.97307000  0.79016140  1
  C  C150  1  0.34953850  0.47307000  0.70983860  1
  C  C151  1  0.65046150  0.47307000  0.79016140  1
  C  C152  1  0.11091150  0.04302000  0.33865140  1
  C  C153  1  0.88908850  0.04302000  0.16134860  1
  C  C154  1  0.61091150  0.54302000  0.33865140  1
  C  C155  1  0.38908850  0.54302000  0.16134860  1
  C  C156  1  0.88908850  0.95698000  0.66134860  1
  C  C157  1  0.11091150  0.95698000  0.83865140  1
  C  C158  1  0.38908850  0.45698000  0.66134860  1
  C  C159  1  0.61091150  0.45698000  0.83865140  1
  H  H160  1  0.06691000  0.08877000  0.32645000  1
  H  H161  1  0.93309000  0.08877000  0.17355000  1
  H  H162  1  0.56691000  0.58877000  0.32645000  1
  H  H163  1  0.43309000  0.58877000  0.17355000  1
  H  H164  1  0.93309000  0.91123000  0.67355000  1
  H  H165  1  0.06691000  0.91123000  0.82645000  1
  H  H166  1  0.43309000  0.41123000  0.67355000  1
  H  H167  1  0.56691000  0.41123000  0.82645000  1
  C  C168  1  0.30690150  0.83237000  0.39108150  1
  C  C169  1  0.69309850  0.83237000  0.10891850  1
  C  C170  1  0.80690150  0.33237000  0.39108150  1
  C  C171  1  0.19309850  0.33237000  0.10891850  1
  C  C172  1  0.69309850  0.16763000  0.60891850  1
  C  C173  1  0.30690150  0.16763000  0.89108150  1
  C  C174  1  0.19309850  0.66763000  0.60891850  1
  C  C175  1  0.80690150  0.66763000  0.89108150  1
  C  C176  1  0.12207160  0.07742000  0.21769140  1
  C  C177  1  0.87792840  0.07742000  0.28230860  1
  C  C178  1  0.62207160  0.57742000  0.21769140  1
  C  C179  1  0.37792840  0.57742000  0.28230860  1
  C  C180  1  0.87792840  0.92258000  0.78230860  1
  C  C181  1  0.12207160  0.92258000  0.71769140  1
  C  C182  1  0.37792840  0.42258000  0.78230860  1
  C  C183  1  0.62207160  0.42258000  0.71769140  1
