# generated using pymatgen
data_Zr3H12C32(O4F3)4
_symmetry_space_group_name_H-M   'P 1'
_cell_length_a   24.25760000
_cell_length_b   24.25760000
_cell_length_c   15.02540000
_cell_angle_alpha   90.00000000
_cell_angle_beta   90.00000000
_cell_angle_gamma   90.00000000
_symmetry_Int_Tables_number   1
_chemical_formula_structural   Zr3H12C32(O4F3)4
_chemical_formula_sum   'Zr12 H48 C128 O64 F48'
_cell_volume   8841.41351781
_cell_formula_units_Z   4
loop_
 _symmetry_equiv_pos_site_id
 _symmetry_equiv_pos_as_xyz
  1  'x, y, z'
loop_
 _atom_site_type_symbol
 _atom_site_label
 _atom_site_symmetry_multiplicity
 _atom_site_fract_x
 _atom_site_fract_y
 _atom_site_fract_z
 _atom_site_occupancy
  Zr  Zr0  1  0.39963300  0.00000000  0.00000000  1
  Zr  Zr1  1  0.00000000  0.39963300  0.50000000  1
  Zr  Zr2  1  0.60036700  0.00000000  0.00000000  1
  Zr  Zr3  1  0.00000000  0.60036700  0.50000000  1
  Zr  Zr4  1  0.50000000  0.07268300  0.11689600  1
  Zr  Zr5  1  0.92731700  0.50000000  0.61689600  1
  Zr  Zr6  1  0.50000000  0.92731700  0.11689600  1
  Zr  Zr7  1  0.07268300  0.50000000  0.61689600  1
  Zr  Zr8  1  0.50000000  0.92731700  0.88310400  1
  Zr  Zr9  1  0.50000000  0.07268300  0.88310400  1
  Zr  Zr10  1  0.07268300  0.50000000  0.38310400  1
  Zr  Zr11  1  0.92731700  0.50000000  0.38310400  1
  O  O12  1  0.35189140  0.05427140  0.08653000  1
  O  O13  1  0.94572860  0.35189140  0.58653000  1
  O  O14  1  0.64810860  0.94572860  0.08653000  1
  O  O15  1  0.05427140  0.64810860  0.58653000  1
  O  O16  1  0.35189140  0.94572860  0.91347000  1
  O  O17  1  0.64810860  0.05427140  0.91347000  1
  O  O18  1  0.05427140  0.35189140  0.41347000  1
  O  O19  1  0.94572860  0.64810860  0.41347000  1
  O  O20  1  0.64810860  0.94572860  0.91347000  1
  O  O21  1  0.05427140  0.64810860  0.41347000  1
  O  O22  1  0.35189140  0.05427140  0.91347000  1
  O  O23  1  0.94572860  0.35189140  0.41347000  1
  O  O24  1  0.64810860  0.05427140  0.08653000  1
  O  O25  1  0.35189140  0.94572860  0.08653000  1
  O  O26  1  0.94572860  0.64810860  0.58653000  1
  O  O27  1  0.05427140  0.35189140  0.58653000  1
  O  O28  1  0.45073000  0.00000000  0.11605000  1
  O  O29  1  0.00000000  0.45073000  0.61605000  1
  O  O30  1  0.54927000  0.00000000  0.11605000  1
  O  O31  1  0.00000000  0.54927000  0.61605000  1
  O  O32  1  0.45073000  0.00000000  0.88395000  1
  O  O33  1  0.54927000  0.00000000  0.88395000  1
  O  O34  1  0.00000000  0.45073000  0.38395000  1
  O  O35  1  0.00000000  0.54927000  0.38395000  1
  O  O52  1  0.41703180  0.10282000  0.16454000  1
  O  O53  1  0.89718000  0.41703180  0.66454000  1
  O  O54  1  0.58296820  0.89718000  0.16454000  1
  O  O55  1  0.10282000  0.58296820  0.66454000  1
  O  O56  1  0.41703180  0.89718000  0.83546000  1
  O  O57  1  0.58296820  0.10282000  0.83546000  1
  O  O58  1  0.10282000  0.41703180  0.33546000  1
  O  O59  1  0.89718000  0.58296820  0.33546000  1
  O  O60  1  0.58296820  0.89718000  0.83546000  1
  O  O61  1  0.10282000  0.58296820  0.33546000  1
  O  O62  1  0.41703180  0.10282000  0.83546000  1
  O  O63  1  0.89718000  0.41703180  0.33546000  1
  O  O64  1  0.58296820  0.10282000  0.16454000  1
  O  O65  1  0.41703180  0.89718000  0.16454000  1
  O  O66  1  0.89718000  0.58296820  0.66454000  1
  O  O67  1  0.10282000  0.41703180  0.66454000  1
  O  O68  1  0.45113000  0.92717000  0.00000000  1
  O  O69  1  0.07283000  0.45113000  0.50000000  1
  O  O70  1  0.54887000  0.07283000  0.00000000  1
  O  O71  1  0.92717000  0.54887000  0.50000000  1
  O  O72  1  0.45113000  0.07283000  0.00000000  1
  O  O73  1  0.54887000  0.92717000  0.00000000  1
  O  O74  1  0.92717000  0.45113000  0.50000000  1
  O  O75  1  0.07283000  0.54887000  0.50000000  1
  C  C76  1  0.36663000  0.09303000  0.13935000  1
  C  C77  1  0.90697000  0.36663000  0.63935000  1
  C  C78  1  0.63337000  0.90697000  0.13935000  1
  C  C79  1  0.09303000  0.63337000  0.63935000  1
  C  C80  1  0.36663000  0.90697000  0.86065000  1
  C  C81  1  0.63337000  0.09303000  0.86065000  1
  C  C82  1  0.09303000  0.36663000  0.36065000  1
  C  C83  1  0.90697000  0.63337000  0.36065000  1
  C  C84  1  0.63337000  0.90697000  0.86065000  1
  C  C85  1  0.09303000  0.63337000  0.36065000  1
  C  C86  1  0.36663000  0.09303000  0.86065000  1
  C  C87  1  0.90697000  0.36663000  0.36065000  1
  C  C88  1  0.63337000  0.09303000  0.13935000  1
  C  C89  1  0.36663000  0.90697000  0.13935000  1
  C  C90  1  0.90697000  0.63337000  0.63935000  1
  C  C91  1  0.09303000  0.36663000  0.63935000  1
  C  C92  1  0.32302000  0.12872000  0.17445000  1
  C  C93  1  0.87128000  0.32302000  0.67445000  1
  C  C94  1  0.67698000  0.87128000  0.17445000  1
  C  C95  1  0.12872000  0.67698000  0.67445000  1
  C  C96  1  0.32302000  0.87128000  0.82555000  1
  C  C97  1  0.67698000  0.12872000  0.82555000  1
  C  C98  1  0.12872000  0.32302000  0.32555000  1
  C  C99  1  0.87128000  0.67698000  0.32555000  1
  C  C100  1  0.67698000  0.87128000  0.82555000  1
  C  C101  1  0.12872000  0.67698000  0.32555000  1
  C  C102  1  0.32302000  0.12872000  0.82555000  1
  C  C103  1  0.87128000  0.32302000  0.32555000  1
  C  C104  1  0.67698000  0.12872000  0.17445000  1
  C  C105  1  0.32302000  0.87128000  0.17445000  1
  C  C106  1  0.87128000  0.67698000  0.67445000  1
  C  C107  1  0.12872000  0.32302000  0.67445000  1
  C  C108  1  0.27112000  0.12932000  0.13534000  1
  C  C109  1  0.87068000  0.27112000  0.63534000  1
  C  C110  1  0.72888000  0.87068000  0.13534000  1
  C  C111  1  0.12932000  0.72888000  0.63534000  1
  C  C112  1  0.27112000  0.87068000  0.86466000  1
  C  C113  1  0.72888000  0.12932000  0.86466000  1
  C  C114  1  0.12932000  0.27112000  0.36466000  1
  C  C115  1  0.87068000  0.72888000  0.36466000  1
  C  C116  1  0.72888000  0.87068000  0.86466000  1
  C  C117  1  0.12932000  0.72888000  0.36466000  1
  C  C118  1  0.27112000  0.12932000  0.86466000  1
  C  C119  1  0.87068000  0.27112000  0.36466000  1
  C  C120  1  0.72888000  0.12932000  0.13534000  1
  C  C121  1  0.27112000  0.87068000  0.13534000  1
  C  C122  1  0.87068000  0.72888000  0.63534000  1
  C  C123  1  0.12932000  0.27112000  0.63534000  1
  H  H124  1  0.26310000  0.10430000  0.08840000  1
  H  H125  1  0.89570000  0.26310000  0.58840000  1
  H  H126  1  0.73690000  0.89570000  0.08840000  1
  H  H127  1  0.10430000  0.73690000  0.58840000  1
  H  H128  1  0.26310000  0.89570000  0.91160000  1
  H  H129  1  0.73690000  0.10430000  0.91160000  1
  H  H130  1  0.10430000  0.26310000  0.41160000  1
  H  H131  1  0.89570000  0.73690000  0.41160000  1
  H  H132  1  0.73690000  0.89570000  0.91160000  1
  H  H133  1  0.10430000  0.73690000  0.41160000  1
  H  H134  1  0.26310000  0.10430000  0.91160000  1
  H  H135  1  0.89570000  0.26310000  0.41160000  1
  H  H136  1  0.73690000  0.10430000  0.08840000  1
  H  H137  1  0.26310000  0.89570000  0.08840000  1
  H  H138  1  0.89570000  0.73690000  0.58840000  1
  H  H139  1  0.10430000  0.26310000  0.58840000  1
  C  C140  1  0.23032000  0.16643000  0.16404000  1
  C  C141  1  0.83357000  0.23032000  0.66404000  1
  C  C142  1  0.76968000  0.83357000  0.16404000  1
  C  C143  1  0.16643000  0.76968000  0.66404000  1
  C  C144  1  0.23032000  0.83357000  0.83596000  1
  C  C145  1  0.76968000  0.16643000  0.83596000  1
  C  C146  1  0.16643000  0.23032000  0.33596000  1
  C  C147  1  0.83357000  0.76968000  0.33596000  1
  C  C148  1  0.76968000  0.83357000  0.83596000  1
  C  C149  1  0.16643000  0.76968000  0.33596000  1
  C  C150  1  0.23032000  0.16643000  0.83596000  1
  C  C151  1  0.83357000  0.23032000  0.33596000  1
  C  C152  1  0.76968000  0.16643000  0.16404000  1
  C  C153  1  0.23032000  0.83357000  0.16404000  1
  C  C154  1  0.83357000  0.76968000  0.66404000  1
  C  C155  1  0.16643000  0.23032000  0.66404000  1
  C  C156  1  0.33462000  0.16512000  0.24295000  1
  C  C157  1  0.83488000  0.33462000  0.74295000  1
  C  C158  1  0.66538000  0.83488000  0.24295000  1
  C  C159  1  0.16512000  0.66538000  0.74295000  1
  C  C160  1  0.33462000  0.83488000  0.75705000  1
  C  C161  1  0.66538000  0.16512000  0.75705000  1
  C  C162  1  0.16512000  0.33462000  0.25705000  1
  C  C163  1  0.83488000  0.66538000  0.25705000  1
  C  C164  1  0.66538000  0.83488000  0.75705000  1
  C  C165  1  0.16512000  0.66538000  0.25705000  1
  C  C166  1  0.33462000  0.16512000  0.75705000  1
  C  C167  1  0.83488000  0.33462000  0.25705000  1
  C  C168  1  0.66538000  0.16512000  0.24295000  1
  C  C169  1  0.33462000  0.83488000  0.24295000  1
  C  C170  1  0.83488000  0.66538000  0.74295000  1
  C  C171  1  0.16512000  0.33462000  0.74295000  1
  H  H172  1  0.37000000  0.16480000  0.27000000  1
  H  H173  1  0.83520000  0.37000000  0.77000000  1
  H  H174  1  0.63000000  0.83520000  0.27000000  1
  H  H175  1  0.16480000  0.63000000  0.77000000  1
  H  H176  1  0.37000000  0.83520000  0.73000000  1
  H  H177  1  0.63000000  0.16480000  0.73000000  1
  H  H178  1  0.16480000  0.37000000  0.23000000  1
  H  H179  1  0.83520000  0.63000000  0.23000000  1
  H  H180  1  0.63000000  0.83520000  0.73000000  1
  H  H181  1  0.16480000  0.63000000  0.23000000  1
  H  H182  1  0.37000000  0.16480000  0.73000000  1
  H  H183  1  0.83520000  0.37000000  0.23000000  1
  H  H184  1  0.63000000  0.16480000  0.27000000  1
  H  H185  1  0.37000000  0.83520000  0.27000000  1
  H  H186  1  0.83520000  0.63000000  0.77000000  1
  H  H187  1  0.16480000  0.37000000  0.77000000  1
  C  C188  1  0.24323000  0.20303000  0.23316000  1
  C  C189  1  0.79697000  0.24323000  0.73316000  1
  C  C190  1  0.75677000  0.79697000  0.23316000  1
  C  C191  1  0.20303000  0.75677000  0.73316000  1
  C  C192  1  0.24323000  0.79697000  0.76684000  1
  C  C193  1  0.75677000  0.20303000  0.76684000  1
  C  C194  1  0.20303000  0.24323000  0.26684000  1
  C  C195  1  0.79697000  0.75677000  0.26684000  1
  C  C196  1  0.75677000  0.79697000  0.76684000  1
  C  C197  1  0.20303000  0.75677000  0.26684000  1
  C  C198  1  0.24323000  0.20303000  0.76684000  1
  C  C199  1  0.79697000  0.24323000  0.26684000  1
  C  C200  1  0.75677000  0.20303000  0.23316000  1
  C  C201  1  0.24323000  0.79697000  0.23316000  1
  C  C202  1  0.79697000  0.75677000  0.73316000  1
  C  C203  1  0.20303000  0.24323000  0.73316000  1
  C  C204  1  0.29443000  0.20253000  0.27255000  1
  C  C205  1  0.79747000  0.29443000  0.77255000  1
  C  C206  1  0.70557000  0.79747000  0.27255000  1
  C  C207  1  0.20253000  0.70557000  0.77255000  1
  C  C208  1  0.29443000  0.79747000  0.72745000  1
  C  C209  1  0.70557000  0.20253000  0.72745000  1
  C  C210  1  0.20253000  0.29443000  0.22745000  1
  C  C211  1  0.79747000  0.70557000  0.22745000  1
  C  C212  1  0.70557000  0.79747000  0.72745000  1
  C  C213  1  0.20253000  0.70557000  0.22745000  1
  C  C214  1  0.29443000  0.20253000  0.72745000  1
  C  C215  1  0.79747000  0.29443000  0.22745000  1
  C  C216  1  0.70557000  0.20253000  0.27255000  1
  C  C217  1  0.29443000  0.79747000  0.27255000  1
  C  C218  1  0.79747000  0.70557000  0.77255000  1
  C  C219  1  0.20253000  0.29443000  0.77255000  1
  H  H220  1  0.30250000  0.22740000  0.31950000  1
  H  H221  1  0.77260000  0.30250000  0.81950000  1
  H  H222  1  0.69750000  0.77260000  0.31950000  1
  H  H223  1  0.22740000  0.69750000  0.81950000  1
  H  H224  1  0.30250000  0.77260000  0.68050000  1
  H  H225  1  0.69750000  0.22740000  0.68050000  1
  H  H226  1  0.22740000  0.30250000  0.18050000  1
  H  H227  1  0.77260000  0.69750000  0.18050000  1
  H  H228  1  0.69750000  0.77260000  0.68050000  1
  H  H229  1  0.22740000  0.69750000  0.18050000  1
  H  H230  1  0.30250000  0.22740000  0.68050000  1
  H  H231  1  0.77260000  0.30250000  0.18050000  1
  H  H232  1  0.69750000  0.22740000  0.31950000  1
  H  H233  1  0.30250000  0.77260000  0.31950000  1
  H  H234  1  0.77260000  0.69750000  0.81950000  1
  H  H235  1  0.22740000  0.30250000  0.81950000  1
  C  C236  1  0.17542000  0.16323000  0.11474000  1
  C  C237  1  0.83677000  0.17542000  0.61474000  1
  C  C238  1  0.82458000  0.83677000  0.11474000  1
  C  C239  1  0.16323000  0.82458000  0.61474000  1
  C  C240  1  0.17542000  0.83677000  0.88526000  1
  C  C241  1  0.82458000  0.16323000  0.88526000  1
  C  C242  1  0.16323000  0.17542000  0.38526000  1
  C  C243  1  0.83677000  0.82458000  0.38526000  1
  C  C244  1  0.82458000  0.83677000  0.88526000  1
  C  C245  1  0.16323000  0.82458000  0.38526000  1
  C  C246  1  0.17542000  0.16323000  0.88526000  1
  C  C247  1  0.83677000  0.17542000  0.38526000  1
  C  C248  1  0.82458000  0.16323000  0.11474000  1
  C  C249  1  0.17542000  0.83677000  0.11474000  1
  C  C250  1  0.83677000  0.82458000  0.61474000  1
  C  C251  1  0.16323000  0.17542000  0.61474000  1
  F  F252  1  0.13223000  0.15125000  0.16676000  1
  F  F253  1  0.84875000  0.13223000  0.66676000  1
  F  F254  1  0.86777000  0.84875000  0.16676000  1
  F  F255  1  0.15125000  0.86777000  0.66676000  1
  F  F256  1  0.13223000  0.84875000  0.83324000  1
  F  F257  1  0.86777000  0.15125000  0.83324000  1
  F  F258  1  0.15125000  0.13223000  0.33324000  1
  F  F259  1  0.84875000  0.86777000  0.33324000  1
  F  F260  1  0.86777000  0.84875000  0.83324000  1
  F  F261  1  0.15125000  0.86777000  0.33324000  1
  F  F262  1  0.13223000  0.15125000  0.83324000  1
  F  F263  1  0.84875000  0.13223000  0.33324000  1
  F  F264  1  0.86777000  0.15125000  0.16676000  1
  F  F265  1  0.13223000  0.84875000  0.16676000  1
  F  F266  1  0.84875000  0.86777000  0.66676000  1
  F  F267  1  0.15125000  0.13223000  0.66676000  1
  F  F268  1  0.16274000  0.21053000  0.07347000  1
  F  F269  1  0.78947000  0.16274000  0.57347000  1
  F  F270  1  0.83726000  0.78947000  0.07347000  1
  F  F271  1  0.21053000  0.83726000  0.57347000  1
  F  F272  1  0.16274000  0.78947000  0.92653000  1
  F  F273  1  0.83726000  0.21053000  0.92653000  1
  F  F274  1  0.21053000  0.16274000  0.42653000  1
  F  F275  1  0.78947000  0.83726000  0.42653000  1
  F  F276  1  0.83726000  0.78947000  0.92653000  1
  F  F277  1  0.21053000  0.83726000  0.42653000  1
  F  F278  1  0.16274000  0.21053000  0.92653000  1
  F  F279  1  0.78947000  0.16274000  0.42653000  1
  F  F280  1  0.83726000  0.21053000  0.07347000  1
  F  F281  1  0.16274000  0.78947000  0.07347000  1
  F  F282  1  0.78947000  0.83726000  0.57347000  1
  F  F283  1  0.21053000  0.16274000  0.57347000  1
  F  F284  1  0.17633000  0.12443000  0.05136000  1
  F  F285  1  0.87557000  0.17633000  0.55136000  1
  F  F286  1  0.82367000  0.87557000  0.05136000  1
  F  F287  1  0.12443000  0.82367000  0.55136000  1
  F  F288  1  0.17633000  0.87557000  0.94864000  1
  F  F289  1  0.82367000  0.12443000  0.94864000  1
  F  F290  1  0.12443000  0.17633000  0.44864000  1
  F  F291  1  0.87557000  0.82367000  0.44864000  1
  F  F292  1  0.82367000  0.87557000  0.94864000  1
  F  F293  1  0.12443000  0.82367000  0.44864000  1
  F  F294  1  0.17633000  0.12443000  0.94864000  1
  F  F295  1  0.87557000  0.17633000  0.44864000  1
  F  F296  1  0.82367000  0.12443000  0.05136000  1
  F  F297  1  0.17633000  0.87557000  0.05136000  1
  F  F298  1  0.87557000  0.82367000  0.55136000  1
  F  F299  1  0.12443000  0.17633000  0.55136000  1
