# generated using pymatgen
data_VH10C14O5
_symmetry_space_group_name_H-M   'P 1'
_cell_length_a   6.80184000
_cell_length_b   13.53449000
_cell_length_c   16.41561000
_cell_angle_alpha   90.00000000
_cell_angle_beta   90.00000000
_cell_angle_gamma   90.00000000
_symmetry_Int_Tables_number   1
_chemical_formula_structural   VH10C14O5
_chemical_formula_sum   'V4 H40 C56 O20'
_cell_volume   1511.21178936
_cell_formula_units_Z   4
loop_
 _symmetry_equiv_pos_site_id
 _symmetry_equiv_pos_as_xyz
  1  'x, y, z'
loop_
 _atom_site_type_symbol
 _atom_site_label
 _atom_site_symmetry_multiplicity
 _atom_site_fract_x
 _atom_site_fract_y
 _atom_site_fract_z
 _atom_site_occupancy
  C  C48  1  0.77414000  0.12112000  0.10597160  1
  C  C49  1  0.72586000  0.87888000  0.60597160  1
  C  C50  1  0.22586000  0.62112000  0.39402840  1
  C  C51  1  0.27414000  0.37888000  0.89402840  1
  C  C52  1  0.76144000  0.05092000  0.17416170  1
  C  C53  1  0.73856000  0.94908000  0.67416170  1
  C  C54  1  0.23856000  0.55092000  0.32583830  1
  C  C55  1  0.26144000  0.44908000  0.82583830  1
  C  C56  1  0.58044000  0.02763000  0.20972000  1
  C  C57  1  0.91956000  0.97237000  0.70972000  1
  C  C58  1  0.41956000  0.52763000  0.29028000  1
  C  C59  1  0.08044000  0.47237000  0.79028000  1
  H  H60  1  0.46620000  0.05540000  0.18860000  1
  H  H61  1  0.03380000  0.94460000  0.68860000  1
  H  H62  1  0.53380000  0.55540000  0.31140000  1
  H  H63  1  0.96620000  0.44460000  0.81140000  1
  C  C64  1  0.56774000  0.96587000  0.27392000  1
  C  C65  1  0.93226000  0.03413000  0.77392000  1
  C  C66  1  0.43226000  0.46587000  0.22608000  1
  C  C67  1  0.06774000  0.53413000  0.72608000  1
  H  H68  1  0.44530000  0.95170000  0.29630000  1
  H  H69  1  0.05470000  0.04830000  0.79630000  1
  H  H70  1  0.55470000  0.45170000  0.20370000  1
  H  H71  1  0.94530000  0.54830000  0.70370000  1
  C  C72  1  0.73784000  0.92278000  0.30736160  1
  C  C73  1  0.76216000  0.07722000  0.80736160  1
  C  C74  1  0.26216000  0.42278000  0.19263840  1
  C  C75  1  0.23784000  0.57722000  0.69263840  1
  C  C76  1  0.91694000  0.94387000  0.27112000  1
  C  C77  1  0.58306000  0.05613000  0.77112000  1
  C  C78  1  0.08306000  0.44387000  0.22888000  1
  C  C79  1  0.41694000  0.55613000  0.72888000  1
  H  H80  1  0.03090000  0.91510000  0.29140000  1
  H  H81  1  0.46910000  0.08490000  0.79140000  1
  H  H82  1  0.96910000  0.41510000  0.20860000  1
  H  H83  1  0.53090000  0.58490000  0.70860000  1
  C  C84  1  0.92834000  0.00703000  0.20576190  1
  C  C85  1  0.57166000  0.99297000  0.70576190  1
  C  C86  1  0.07166000  0.50703000  0.29423810  1
  C  C87  1  0.42834000  0.49297000  0.79423810  1
  H  H88  1  0.05000000  0.02030000  0.18240000  1
  H  H89  1  0.45000000  0.97970000  0.68240000  1
  H  H90  1  0.95000000  0.52030000  0.31760000  1
  H  H91  1  0.55000000  0.47970000  0.81760000  1
  C  C92  1  0.72554000  0.85838000  0.37953150  1
  C  C93  1  0.77446000  0.14162000  0.87953150  1
  C  C94  1  0.27446000  0.35838000  0.12046850  1
  C  C95  1  0.22554000  0.64162000  0.62046850  1
  O  O96  1  0.28111160  0.18868100  0.00000000  1
  O  O97  1  0.21888840  0.81131900  0.49577890  1
  O  O98  1  0.71888840  0.68868100  0.50422110  1
  O  O99  1  0.78111160  0.31131900  0.00422110  1
  O  O100  1  0.94303000  0.14257160  0.07867120  1
  O  O101  1  0.55697000  0.85742840  0.57867120  1
  O  O102  1  0.05697000  0.64257160  0.42132880  1
  O  O103  1  0.44303000  0.35742840  0.92132880  1
  O  O104  1  0.55853000  0.83982840  0.40836120  1
  O  O105  1  0.94147000  0.16017160  0.90836120  1
  O  O106  1  0.44147000  0.33982840  0.09163880  1
  O  O107  1  0.05853000  0.66017160  0.59163880  1
  O  O108  1  0.61403000  0.15673170  0.07945130  1
  O  O109  1  0.88597000  0.84326830  0.57945130  1
  O  O110  1  0.38597000  0.65673170  0.42054870  1
  O  O111  1  0.11403000  0.34326830  0.92054870  1
  O  O112  1  0.88593000  0.82465850  0.40766120  1
  O  O113  1  0.61407000  0.17534150  0.90766120  1
  O  O114  1  0.11407000  0.32465850  0.09233880  1
  O  O115  1  0.38593000  0.67534150  0.59233880  1
  V  V116  1  0.06289300  0.23560200  0.00000000  1
  V  V117  1  0.43710700  0.76439800  0.49927700  1
  V  V118  1  0.93710700  0.73560200  0.50072300  1
  V  V119  1  0.56289300  0.26439800  0.00072300  1
