# generated using pymatgen
data_Ni4H62C68N8O27
_symmetry_space_group_name_H-M   'P 1'
_cell_length_a   8.40563000
_cell_length_b   25.47388000
_cell_length_c   15.56415000
_cell_angle_alpha   90.00000000
_cell_angle_beta   94.46330000
_cell_angle_gamma   90.00000000
_symmetry_Int_Tables_number   1
_chemical_formula_structural   Ni4H62C68N8O27
_chemical_formula_sum   'Ni8 H124 C136 N16 O54'
_cell_volume   3322.55154037
_cell_formula_units_Z   2
loop_
 _symmetry_equiv_pos_site_id
 _symmetry_equiv_pos_as_xyz
  1  'x, y, z'
loop_
 _atom_site_type_symbol
 _atom_site_label
 _atom_site_symmetry_multiplicity
 _atom_site_fract_x
 _atom_site_fract_y
 _atom_site_fract_z
 _atom_site_occupancy
  Ni  Ni0  1  0.49169860  0.19164400  0.76927700  1
  Ni  Ni1  1  0.99169860  0.80835600  0.26927700  1
  Ni  Ni2  1  0.98966860  0.30648400  0.72452700  1
  Ni  Ni3  1  0.48966860  0.69351600  0.22452700  1
  Ni  Ni4  1  0.17467160  0.52563500  0.07055800  1
  Ni  Ni5  1  0.67467160  0.47436500  0.57055800  1
  Ni  Ni6  1  0.18997150  0.03452500  0.92906300  1
  Ni  Ni7  1  0.68997150  0.96547500  0.42906300  1
  O  O8  1  0.53584000  0.11054190  0.76613000  1
  O  O9  1  0.03584000  0.88945810  0.26613000  1
  O  O10  1  0.77402000  0.08162000  0.82323000  1
  O  O11  1  0.27402000  0.91838000  0.32323000  1
  O  O12  1  0.73543000  0.20552000  0.76393000  1
  O  O13  1  0.23543000  0.79448000  0.26393000  1
  O  O14  1  0.96594000  0.22650180  0.71123000  1
  O  O15  1  0.46594000  0.77349820  0.21123000  1
  O  O16  1  0.46267000  0.00142000  0.43143000  1
  O  O17  1  0.96267000  0.00000000  0.93143000  1
  O  O18  1  0.58477000  0.00052000  0.31173000  1
  O  O19  1  0.08477000  0.00000000  0.81173000  1
  O  O20  1  0.23218000  0.05882000  0.04963000  1
  O  O21  1  0.73218000  0.94118000  0.54963000  1
  O  O22  1  0.07539000  0.12922000  0.05964000  1
  O  O23  1  0.57539000  0.87078000  0.55964000  1
  O  O24  1  0.23416000  0.29172000  0.73563000  1
  O  O25  1  0.73416000  0.70828000  0.23563000  1
  O  O26  1  0.03847000  0.38638180  0.72173000  1
  O  O27  1  0.53847000  0.61361820  0.22173000  1
  O  O28  1  0.47976000  0.27303190  0.78983000  1
  O  O29  1  0.97976000  0.72696810  0.28983000  1
  O  O30  1  0.25428000  0.42233000  0.67684000  1
  O  O31  1  0.75428000  0.57767000  0.17684000  1
  O  O32  1  0.03328000  0.47932000  0.13614000  1
  O  O33  1  0.53328000  0.52068000  0.63614000  1
  O  O34  1  0.09638000  0.50223000  0.27274000  1
  O  O35  1  0.59638000  0.49777000  0.77274000  1
  O  O36  1  0.78257000  0.42282000  0.49453000  1
  O  O37  1  0.28257000  0.57718000  0.99453000  1
  O  O38  1  0.57968000  0.36802000  0.45724000  1
  O  O39  1  0.07968000  0.63198000  0.95724000  1
  N  N82  1  0.45812000  0.19662000  0.63494000  1
  N  N83  1  0.95812000  0.80338000  0.13494000  1
  N  N84  1  0.51082000  0.18802000  0.90566000  1
  N  N85  1  0.01082000  0.81198000  0.40566000  1
  N  N86  1  0.79482000  0.03622000  0.46484000  1
  N  N87  1  0.29482000  0.96378000  0.96484000  1
  N  N88  1  0.94032000  0.10732000  0.43904000  1
  N  N89  1  0.44032000  0.89268000  0.93904000  1
  N  N90  1  0.97362000  0.30322000  0.85806000  1
  N  N91  1  0.47362000  0.69678000  0.35806000  1
  N  N92  1  0.00000000  0.30632000  0.58964000  1
  N  N93  1  0.49942000  0.69368000  0.08964000  1
  N  N94  1  0.46298000  0.39042000  0.07144000  1
  N  N95  1  0.96298000  0.60958000  0.57144000  1
  N  N96  1  0.31018000  0.46022000  0.03624000  1
  N  N97  1  0.81018000  0.53978000  0.53624000  1
  C  C98  1  0.44949000  0.15183000  0.58885000  1
  C  C99  1  0.94949000  0.84817000  0.08885000  1
  H  H100  1  0.43017000  0.12058000  0.61728000  1
  H  H101  1  0.93017000  0.87942000  0.11728000  1
  C  C102  1  0.46769000  0.14973000  0.50205000  1
  C  C103  1  0.96769000  0.85027000  0.00205000  1
  H  H104  1  0.46677000  0.11749000  0.47379000  1
  H  H105  1  0.96677000  0.88251000  0.97379000  1
  C  C106  1  0.48751000  0.19563000  0.45664000  1
  C  C107  1  0.98751000  0.80437000  0.95664000  1
  C  C108  1  0.48779000  0.24273000  0.50325000  1
  C  C109  1  0.98779000  0.75727000  0.00325000  1
  H  H110  1  0.49614000  0.27480000  0.47543000  1
  H  H111  1  0.00000000  0.72520000  0.97543000  1
  C  C112  1  0.47531000  0.24073000  0.59105000  1
  C  C113  1  0.97531000  0.75927000  0.09105000  1
  H  H114  1  0.47930000  0.27219000  0.62136000  1
  H  H115  1  0.97930000  0.72781000  0.12136000  1
  C  C116  1  0.50319000  0.19493000  0.36244000  1
  C  C117  1  0.00319000  0.80507000  0.86244000  1
  C  C118  1  0.58879000  0.15513000  0.32355000  1
  C  C119  1  0.08879000  0.84487000  0.82355000  1
  H  H120  1  0.64021000  0.12932000  0.35758000  1
  H  H121  1  0.14021000  0.87068000  0.85758000  1
  C  C122  1  0.42398900  0.23213000  0.30925000  1
  C  C123  1  0.92398900  0.76787000  0.80925000  1
  H  H124  1  0.36585000  0.25876000  0.33288000  1
  H  H125  1  0.86585000  0.74124000  0.83288000  1
  C  C126  1  0.63429000  0.16763000  0.95405000  1
  C  C127  1  0.13429000  0.83237000  0.45405000  1
  H  H128  1  0.71920000  0.15355000  0.92683000  1
  H  H129  1  0.21920000  0.84645000  0.42683000  1
  C  C130  1  0.64019000  0.16663000  0.04415000  1
  C  C131  1  0.14019000  0.83337000  0.54415000  1
  H  H132  1  0.72684000  0.15117000  0.07530000  1
  H  H133  1  0.22684000  0.84883000  0.57530000  1
  C  C134  1  0.52009000  0.18803000  0.08655000  1
  C  C135  1  0.02009000  0.81197000  0.58655000  1
  C  C136  1  0.38739000  0.20843000  0.03455000  1
  C  C137  1  0.88739000  0.79157000  0.53455000  1
  H  H138  1  0.29951000  0.22206000  0.05970000  1
  H  H139  1  0.79951000  0.77794000  0.55970000  1
  C  C140  1  0.39179000  0.20753000  0.94655000  1
  C  C141  1  0.89179000  0.79247000  0.44655000  1
  H  H142  1  0.30537000  0.22164000  0.91344000  1
  H  H143  1  0.80537000  0.77836000  0.41344000  1
  C  C144  1  0.51889000  0.19063000  0.18224000  1
  C  C145  1  0.01889000  0.80937000  0.68224000  1
  C  C146  1  0.59709000  0.15403000  0.23635000  1
  C  C147  1  0.09709000  0.84597000  0.73635000  1
  H  H148  1  0.65710000  0.12789000  0.21236000  1
  H  H149  1  0.15710000  0.87211000  0.71236000  1
  C  C150  1  0.43228900  0.22913000  0.22005000  1
  C  C151  1  0.93228900  0.77087000  0.72005000  1
  H  H152  1  0.37781000  0.25383000  0.18499000  1
  H  H153  1  0.87781000  0.74617000  0.68499000  1
  C  C154  1  0.68491000  0.09843000  0.76195000  1
  C  C155  1  0.18491000  0.90157000  0.26195000  1
  C  C156  1  0.75201000  0.10433000  0.67474000  1
  C  C157  1  0.25201000  0.89567000  0.17474000  1
  C  C158  1  0.73371000  0.06353000  0.61635000  1
  C  C159  1  0.23371000  0.93647000  0.11635000  1
  H  H160  1  0.67957000  0.03310000  0.62951000  1
  H  H161  1  0.17957000  0.96690000  0.12951000  1
  C  C162  1  0.79821000  0.06903000  0.53754000  1
  C  C163  1  0.29821000  0.93097000  0.03754000  1
  C  C164  1  0.88939000  0.11373000  0.52134000  1
  C  C165  1  0.38939000  0.88627000  0.02134000  1
  C  C166  1  0.91041000  0.15493000  0.58045000  1
  C  C167  1  0.41041000  0.84507000  0.08045000  1
  H  H168  1  0.97125000  0.18419000  0.56901000  1
  H  H169  1  0.47125000  0.81581000  0.06901000  1
  C  C170  1  0.83751000  0.15023000  0.65614000  1
  C  C171  1  0.33751000  0.84977000  0.15614000  1
  C  C172  1  0.84471000  0.19722000  0.71624000  1
  C  C173  1  0.34471000  0.80278000  0.21624000  1
  C  C174  1  0.88109000  0.06073000  0.40895000  1
  C  C175  1  0.38109000  0.93927000  0.90895000  1
  H  H176  1  0.89892000  0.04729000  0.35488000  1
  H  H177  1  0.39892000  0.95271000  0.85488000  1
  C  C178  1  0.03751100  0.14333000  0.39205000  1
  C  C179  1  0.53751100  0.85667000  0.89205000  1
  H  H180  1  0.10878000  0.16276000  0.43240000  1
  H  H181  1  0.60878000  0.83724000  0.93240000  1
  H  H182  1  0.96888000  0.16828000  0.35995000  1
  H  H183  1  0.46888000  0.83172000  0.85995000  1
  C  C184  1  0.13331000  0.11333000  0.33105000  1
  C  C185  1  0.63331000  0.88667000  0.83105000  1
  C  C186  1  0.24231000  0.07663000  0.36545000  1
  C  C187  1  0.74231000  0.92337000  0.86545000  1
  H  H188  1  0.25184000  0.07074000  0.42454000  1
  H  H189  1  0.75184000  0.92926000  0.92454000  1
  C  C190  1  0.33751000  0.04863000  0.31255000  1
  C  C191  1  0.83751000  0.95137000  0.81255000  1
  C  C192  1  0.31741000  0.05623000  0.22165000  1
  C  C193  1  0.81741000  0.94377000  0.72165000  1
  H  H194  1  0.38071000  0.03798000  0.18536000  1
  H  H195  1  0.88071000  0.96202000  0.68536000  1
  C  C196  1  0.20281000  0.09103000  0.18805000  1
  C  C197  1  0.70281000  0.90897000  0.68805000  1
  C  C198  1  0.11361000  0.12033000  0.24165000  1
  C  C199  1  0.61361000  0.87967000  0.74165000  1
  H  H200  1  0.04019000  0.14467000  0.21821000  1
  H  H201  1  0.54019000  0.85533000  0.71821000  1
  C  C202  1  0.46851000  0.01443000  0.35235000  1
  C  C203  1  0.96851000  0.98557000  0.85235000  1
  C  C204  1  0.16731000  0.09433000  0.09024000  1
  C  C205  1  0.66731000  0.90567000  0.59024000  1
  C  C206  1  0.98529000  0.25713000  0.90096000  1
  C  C207  1  0.48529000  0.74287000  0.40096000  1
  H  H208  1  0.98881000  0.22611000  0.86949000  1
  H  H209  1  0.48881000  0.77389000  0.36949000  1
  C  C210  1  0.99219000  0.25413000  0.98965000  1
  C  C211  1  0.49219000  0.74587000  0.48965000  1
  H  H212  1  0.00000000  0.22166000  0.01719000  1
  H  H213  1  0.49889000  0.77834000  0.51719000  1
  C  C214  1  0.98919000  0.30003000  0.03775000  1
  C  C215  1  0.48919000  0.69997000  0.53775000  1
  C  C216  1  0.97008900  0.34733000  0.99285000  1
  C  C217  1  0.47008900  0.65267000  0.49285000  1
  H  H218  1  0.96334000  0.37875000  0.02271000  1
  H  H219  1  0.46334000  0.62125000  0.52271000  1
  C  C220  1  0.96129000  0.34713000  0.90455000  1
  C  C221  1  0.46129000  0.65287000  0.40455000  1
  H  H222  1  0.94619000  0.37888000  0.87566000  1
  H  H223  1  0.44619000  0.62112000  0.37566000  1
  C  C224  1  0.87449000  0.28883000  0.53945000  1
  C  C225  1  0.37449000  0.71117000  0.03945000  1
  H  H226  1  0.78343000  0.27887000  0.56560000  1
  H  H227  1  0.28343000  0.72113000  0.06560000  1
  C  C228  1  0.87279000  0.28453000  0.45045000  1
  C  C229  1  0.37279000  0.71547000  0.95045000  1
  H  H230  1  0.78374000  0.27124000  0.41833000  1
  H  H231  1  0.28374000  0.72876000  0.91833000  1
  C  C232  1  0.00710000  0.30053000  0.40994000  1
  C  C233  1  0.50710000  0.69947000  0.90994000  1
  C  C234  1  0.13810000  0.31853000  0.46155000  1
  C  C235  1  0.63810000  0.68147000  0.96155000  1
  H  H236  1  0.23052000  0.32901000  0.43729000  1
  H  H237  1  0.73052000  0.67099000  0.93729000  1
  C  C238  1  0.12751000  0.32053000  0.55105000  1
  C  C239  1  0.62751000  0.67947000  0.05105000  1
  H  H240  1  0.21573000  0.33252000  0.58517000  1
  H  H241  1  0.71573000  0.66748000  0.08517000  1
  C  C242  1  0.00761000  0.29873000  0.31364000  1
  C  C243  1  0.50761000  0.70127000  0.81364000  1
  C  C244  1  0.90868900  0.26413000  0.26535000  1
  C  C245  1  0.40868900  0.73587000  0.76535000  1
  H  H246  1  0.84348000  0.24122000  0.29308000  1
  H  H247  1  0.34348000  0.75878000  0.79308000  1
  C  C248  1  0.90648800  0.26353000  0.17625000  1
  C  C249  1  0.40648800  0.73647000  0.67625000  1
  H  H250  1  0.84148000  0.23971000  0.14466000  1
  H  H251  1  0.34148000  0.76029000  0.64466000  1
  C  C252  1  0.00151100  0.29853000  0.13365000  1
  C  C253  1  0.50151100  0.70147000  0.63365000  1
  C  C254  1  0.09661200  0.33373000  0.18085000  1
  C  C255  1  0.59661200  0.66627000  0.68085000  1
  H  H256  1  0.15630000  0.35808000  0.15265000  1
  H  H257  1  0.65630000  0.64192000  0.65265000  1
  C  C258  1  0.10421000  0.33303000  0.27195000  1
  C  C259  1  0.60421000  0.66697000  0.77195000  1
  H  H260  1  0.17353000  0.35534000  0.30366000  1
  H  H261  1  0.67353000  0.64466000  0.80366000  1
  C  C262  1  0.35329000  0.30153000  0.78514000  1
  C  C263  1  0.85329000  0.69847000  0.28514000  1
  C  C264  1  0.35239000  0.34803000  0.84494000  1
  C  C265  1  0.85239000  0.65197000  0.34494000  1
  C  C266  1  0.43161000  0.34333000  0.92695000  1
  C  C267  1  0.93161000  0.65667000  0.42695000  1
  H  H268  1  0.49613000  0.31459000  0.94186000  1
  H  H269  1  0.00000000  0.68541000  0.44186000  1
  C  C270  1  0.40949000  0.38373000  0.98514000  1
  C  C271  1  0.90949000  0.61627000  0.48514000  1
  C  C272  1  0.31559000  0.42833000  0.96425000  1
  C  C273  1  0.81559000  0.57167000  0.46425000  1
  C  C274  1  0.24631000  0.43433000  0.88075000  1
  C  C275  1  0.74631000  0.56567000  0.38075000  1
  H  H276  1  0.18977000  0.46456000  0.86431000  1
  H  H277  1  0.68977000  0.53544000  0.36431000  1
  C  C278  1  0.26459000  0.39363000  0.82234000  1
  C  C279  1  0.76459000  0.60637000  0.32234000  1
  C  C280  1  0.18279000  0.40103000  0.73244000  1
  C  C281  1  0.68279000  0.59897000  0.23244000  1
  C  C282  1  0.40261000  0.43613000  0.09715000  1
  C  C283  1  0.90261000  0.56387000  0.59715000  1
  H  H284  1  0.42372000  0.44965000  0.15226000  1
  H  H285  1  0.92372000  0.55035000  0.65226000  1
  C  C286  1  0.01310000  0.47863000  0.21415000  1
  C  C287  1  0.51310000  0.52137000  0.71415000  1
  C  C288  1  0.87610000  0.44493000  0.23875000  1
  C  C289  1  0.37610000  0.55507000  0.73875000  1
  C  C290  1  0.84831000  0.43623000  0.32455000  1
  C  C291  1  0.34831000  0.56377000  0.82455000  1
  H  H292  1  0.91170000  0.45316000  0.36760000  1
  H  H293  1  0.41170000  0.54684000  0.86760000  1
  C  C294  1  0.72721000  0.40273000  0.34695000  1
  C  C295  1  0.22721000  0.59727000  0.84695000  1
  C  C296  1  0.63801100  0.37563000  0.28165000  1
  C  C297  1  0.13801100  0.62437000  0.78165000  1
  H  H298  1  0.56078000  0.35163000  0.29590000  1
  H  H299  1  0.06078000  0.64837000  0.79590000  1
  C  C300  1  0.66341000  0.38413000  0.19595000  1
  C  C301  1  0.16341000  0.61587000  0.69595000  1
  C  C302  1  0.78351000  0.41823000  0.17515000  1
  C  C303  1  0.28351000  0.58177000  0.67515000  1
  H  H304  1  0.80227000  0.42331000  0.11754000  1
  H  H305  1  0.30227000  0.57669000  0.61754000  1
  C  C306  1  0.69481100  0.39623000  0.43975000  1
  C  C307  1  0.19481100  0.60377000  0.93975000  1
  C  C308  1  0.56691100  0.35483000  0.12365000  1
  C  C309  1  0.06691100  0.64517000  0.62365000  1
  H  H310  1  0.63929000  0.33751000  0.08715000  1
  H  H311  1  0.13929000  0.66249000  0.58715000  1
  H  H312  1  0.50253000  0.32798000  0.14848000  1
  H  H313  1  0.00253000  0.67202000  0.64848000  1
