# generated using pymatgen
data_ThH6C14(NO6)2
_symmetry_space_group_name_H-M   'P 1'
_cell_length_a   6.66021000
_cell_length_b   11.69411800
_cell_length_c   22.78840000
_cell_angle_alpha   90.00000000
_cell_angle_beta   90.00000000
_cell_angle_gamma   90.00000000
_symmetry_Int_Tables_number   1
_chemical_formula_structural   ThH6C14(NO6)2
_chemical_formula_sum   'Th4 H24 C56 N8 O48'
_cell_volume   1774.88095223
_cell_formula_units_Z   4
loop_
 _symmetry_equiv_pos_site_id
 _symmetry_equiv_pos_as_xyz
  1  'x, y, z'
loop_
 _atom_site_type_symbol
 _atom_site_label
 _atom_site_symmetry_multiplicity
 _atom_site_fract_x
 _atom_site_fract_y
 _atom_site_fract_z
 _atom_site_occupancy
  Th  Th0  1  0.76700700  0.09587400  0.36201200  1
  Th  Th1  1  0.73299300  0.90412600  0.86201200  1
  Th  Th2  1  0.23299300  0.59587400  0.13798800  1
  Th  Th3  1  0.26700700  0.40412600  0.63798800  1
  N  N4  1  0.74920000  0.28359000  0.42904000  1
  N  N5  1  0.75080000  0.71641000  0.92904000  1
  N  N6  1  0.25080000  0.78359000  0.07096000  1
  N  N7  1  0.24920000  0.21641000  0.57096000  1
  N  N8  1  0.98951700  0.13869000  0.26465000  1
  N  N9  1  0.51048300  0.86131000  0.76465000  1
  N  N10  1  0.01048300  0.63869000  0.23535000  1
  N  N11  1  0.48951700  0.36131000  0.73535000  1
  O  O12  1  0.77041600  0.07217000  0.46394000  1
  O  O13  1  0.72958400  0.92783000  0.96394000  1
  O  O14  1  0.22958400  0.57217000  0.03606000  1
  O  O15  1  0.27041600  0.42783000  0.53606000  1
  O  O16  1  0.77391800  0.12197000  0.55784000  1
  O  O17  1  0.72608200  0.87803000  0.05784000  1
  O  O18  1  0.22608200  0.62197000  0.94216000  1
  O  O19  1  0.27391800  0.37803000  0.44216000  1
  O  O20  1  0.63941500  0.34029000  0.21285000  1
  O  O21  1  0.86058500  0.65971000  0.71285000  1
  O  O22  1  0.36058500  0.84029000  0.28715000  1
  O  O23  1  0.13941500  0.15971000  0.78715000  1
  O  O24  1  0.66971400  0.24878000  0.29924000  1
  O  O25  1  0.83028600  0.75122000  0.79924000  1
  O  O26  1  0.33028600  0.74878000  0.20076000  1
  O  O27  1  0.16971400  0.25122000  0.70076000  1
  O  O28  1  0.58911300  0.33141000  0.61675000  1
  O  O29  1  0.91088700  0.66859000  0.11675000  1
  O  O30  1  0.41088700  0.83141000  0.88325000  1
  O  O31  1  0.08911300  0.16859000  0.38325000  1
  O  O32  1  0.00611300  0.44228000  0.13906000  1
  O  O33  1  0.49388700  0.55772000  0.63906000  1
  O  O34  1  0.99388700  0.94228000  0.36094000  1
  O  O35  1  0.50611300  0.05772000  0.86094000  1
  O  O36  1  0.91771400  0.35571100  0.61975000  1
  O  O37  1  0.58228600  0.64428900  0.11975000  1
  O  O38  1  0.08228600  0.85571100  0.88025000  1
  O  O39  1  0.41771400  0.14428900  0.38025000  1
  O  O48  1  0.82861700  0.30669000  0.09495000  1
  O  O49  1  0.67138300  0.69331000  0.59495000  1
  O  O50  1  0.17138300  0.80669000  0.40505000  1
  O  O51  1  0.32861700  0.19331000  0.90505000  1
  C  C52  1  0.75430000  0.26821100  0.48695000  1
  C  C53  1  0.74570000  0.73178900  0.98695000  1
  C  C54  1  0.24570000  0.76821100  0.01305000  1
  C  C55  1  0.25430000  0.23178900  0.51305000  1
  C  C56  1  0.76620000  0.14571000  0.50545000  1
  C  C57  1  0.73380000  0.85429000  0.00545000  1
  C  C58  1  0.23380000  0.64571000  0.99455000  1
  C  C59  1  0.26620000  0.35429000  0.49455000  1
  C  C60  1  0.76130000  0.35810000  0.52695000  1
  C  C61  1  0.73870000  0.64190000  0.02695000  1
  C  C62  1  0.23870000  0.85810000  0.97305000  1
  C  C63  1  0.26130000  0.14190000  0.47305000  1
  C  C64  1  0.76020000  0.34459000  0.59205000  1
  C  C65  1  0.73980000  0.65541000  0.09205000  1
  C  C66  1  0.23980000  0.84459000  0.90795000  1
  C  C67  1  0.26020000  0.15541000  0.40795000  1
  C  C68  1  0.75230000  0.46731200  0.50535000  1
  C  C69  1  0.74770000  0.53268800  0.00535000  1
  C  C70  1  0.24770000  0.96731200  0.99465000  1
  C  C71  1  0.25230000  0.03268800  0.49465000  1
  H  H72  1  0.75160000  0.52950000  0.53060000  1
  H  H73  1  0.74840000  0.47050000  0.03060000  1
  H  H74  1  0.24840000  0.02950000  0.96940000  1
  H  H75  1  0.25160000  0.97050000  0.46940000  1
  C  C76  1  0.74520000  0.39061000  0.40935000  1
  C  C77  1  0.75480000  0.60939000  0.90935000  1
  C  C78  1  0.25480000  0.89061000  0.09065000  1
  C  C79  1  0.24520000  0.10939000  0.59065000  1
  H  H80  1  0.74290000  0.40210000  0.36890000  1
  H  H81  1  0.75710000  0.59790000  0.86890000  1
  H  H82  1  0.25710000  0.90210000  0.13110000  1
  H  H83  1  0.24290000  0.09790000  0.63110000  1
  C  C84  1  0.16371900  0.08881500  0.25106000  1
  C  C85  1  0.33628100  0.91118500  0.75106000  1
  C  C86  1  0.83628100  0.58881500  0.24894000  1
  C  C87  1  0.66371900  0.41118500  0.74894000  1
  H  H88  1  0.21080000  0.03080000  0.27520000  1
  H  H89  1  0.28920000  0.96920000  0.77520000  1
  H  H90  1  0.78920000  0.53080000  0.22480000  1
  H  H91  1  0.71080000  0.46920000  0.72480000  1
  C  C92  1  0.27720000  0.11881000  0.20316000  1
  C  C93  1  0.22280000  0.88119000  0.70316000  1
  C  C94  1  0.72280000  0.61881000  0.29684000  1
  C  C95  1  0.77720000  0.38119000  0.79684000  1
  H  H96  1  0.39870000  0.08260000  0.19610000  1
  H  H97  1  0.10130000  0.91740000  0.69610000  1
  H  H98  1  0.60130000  0.58260000  0.30390000  1
  H  H99  1  0.89870000  0.41740000  0.80390000  1
  C  C100  1  0.74440000  0.48391100  0.44465000  1
  C  C101  1  0.75560000  0.51608900  0.94465000  1
  C  C102  1  0.25560000  0.98391100  0.05535000  1
  C  C103  1  0.24440000  0.01608900  0.55535000  1
  H  H104  1  0.73810000  0.55720000  0.42880000  1
  H  H105  1  0.76190000  0.44280000  0.92880000  1
  H  H106  1  0.26190000  0.05720000  0.07120000  1
  H  H107  1  0.23810000  0.94280000  0.57120000  1
  C  C108  1  0.72330000  0.27551100  0.24616000  1
  C  C109  1  0.77670000  0.72448900  0.74616000  1
  C  C110  1  0.27670000  0.77551100  0.25384000  1
  C  C111  1  0.22330000  0.22448900  0.75384000  1
  C  C112  1  0.91720000  0.21881200  0.22726000  1
  C  C113  1  0.58280000  0.78118800  0.72726000  1
  C  C114  1  0.08280000  0.71881200  0.27274000  1
  C  C115  1  0.41720000  0.28118800  0.77274000  1
  C  C116  1  0.02301900  0.25311200  0.17796000  1
  C  C117  1  0.47698100  0.74688800  0.67796000  1
  C  C118  1  0.97698100  0.75311200  0.32204000  1
  C  C119  1  0.52301900  0.24688800  0.82204000  1
  C  C120  1  0.21330000  0.19911200  0.16697000  1
  C  C121  1  0.28670000  0.80088800  0.66697000  1
  C  C122  1  0.78670000  0.69911200  0.33303000  1
  C  C123  1  0.71330000  0.30088800  0.83303000  1
  H  H124  1  0.28940000  0.22030000  0.13470000  1
  H  H125  1  0.21060000  0.77970000  0.63470000  1
  H  H126  1  0.71060000  0.72030000  0.36530000  1
  H  H127  1  0.78940000  0.27970000  0.86530000  1
  C  C128  1  0.94671900  0.34031300  0.13508000  1
  C  C129  1  0.55328100  0.65968700  0.63508000  1
  C  C130  1  0.05328100  0.84031300  0.36492000  1
  C  C131  1  0.44671900  0.15968700  0.86492000  1
