# generated using pymatgen
data_Tm2H21C27NO14
_symmetry_space_group_name_H-M   'P 1'
_cell_length_a   10.86391500
_cell_length_b   18.66730000
_cell_length_c   19.84030000
_cell_angle_alpha   98.03520000
_cell_angle_beta   96.53520000
_cell_angle_gamma   106.18520000
_symmetry_Int_Tables_number   1
_chemical_formula_structural   Tm2H21C27NO14
_chemical_formula_sum   'Tm8 H84 C108 N4 O56'
_cell_volume   3776.49990746
_cell_formula_units_Z   4
loop_
 _symmetry_equiv_pos_site_id
 _symmetry_equiv_pos_as_xyz
  1  'x, y, z'
loop_
 _atom_site_type_symbol
 _atom_site_label
 _atom_site_symmetry_multiplicity
 _atom_site_fract_x
 _atom_site_fract_y
 _atom_site_fract_z
 _atom_site_occupancy
  C  C4  1  0.55151100  0.00000000  0.24916000  1
  C  C5  1  0.44848900  0.00347000  0.75084000  1
  C  C14  1  0.41221000  0.00000000  0.24386000  1
  C  C15  1  0.58779000  0.00016000  0.75614000  1
  C  C22  1  0.37961100  0.05767000  0.21966000  1
  C  C23  1  0.62038900  0.94233000  0.78034000  1
  H  H24  1  0.44380000  0.09560000  0.20700000  1
  H  H25  1  0.55620000  0.90440000  0.79300000  1
  C  C26  1  0.25631000  0.06156000  0.21326000  1
  C  C27  1  0.74369000  0.93844000  0.78674000  1
  H  H28  1  0.23610000  0.10130000  0.19570000  1
  H  H29  1  0.76390000  0.89870000  0.80430000  1
  C  C30  1  0.15929000  0.00516000  0.23325000  1
  C  C31  1  0.84071000  0.99484000  0.76675000  1
  C  C40  1  0.02371100  0.00978000  0.22946000  1
  C  C41  1  0.97628900  0.99022000  0.77054000  1
  C  C42  1  0.19381000  0.94643000  0.25767000  1
  C  C43  1  0.80619000  0.05357000  0.74233000  1
  H  H44  1  0.13140000  0.90880000  0.27180000  1
  H  H45  1  0.86860000  0.09120000  0.72820000  1
  C  C46  1  0.31511100  0.94293000  0.26117000  1
  C  C47  1  0.68488900  0.05707000  0.73883000  1
  H  H48  1  0.33500000  0.90170000  0.27550000  1
  H  H49  1  0.66500000  0.09830000  0.72450000  1
  C  C50  1  0.86391100  0.07827000  0.36536000  1
  C  C51  1  0.13608900  0.92173000  0.63464000  1
  C  C52  1  0.90910000  0.11126000  0.44056000  1
  C  C53  1  0.09090000  0.88874000  0.55944000  1
  C  C54  1  0.95201200  0.18897000  0.46116000  1
  C  C55  1  0.04798800  0.81103000  0.53884000  1
  H  H56  1  0.94690000  0.22020000  0.42890000  1
  H  H57  1  0.05310000  0.77980000  0.57110000  1
  C  C58  1  0.00251100  0.22046000  0.52926000  1
  C  C59  1  0.00000000  0.77954000  0.47074000  1
  H  H60  1  0.02780000  0.27270000  0.54360000  1
  H  H61  1  0.97220000  0.72730000  0.45640000  1
  C  C62  1  0.01511000  0.17296000  0.57595000  1
  C  C63  1  0.98489000  0.82704000  0.42405000  1
  C  C64  1  0.08631000  0.20626000  0.64946000  1
  C  C65  1  0.91369000  0.79374000  0.35054000  1
  C  C66  1  0.96201100  0.09526000  0.55586000  1
  C  C67  1  0.03798900  0.90474000  0.44414000  1
  H  H68  1  0.95990000  0.06350000  0.58820000  1
  H  H69  1  0.04010000  0.93650000  0.41180000  1
  C  C70  1  0.91421200  0.06646000  0.49036000  1
  C  C71  1  0.08578800  0.93354000  0.50964000  1
  H  H72  1  0.88280000  0.01390000  0.47700000  1
  H  H73  1  0.11720000  0.98610000  0.52300000  1
  C  C74  1  0.66181100  0.21607000  0.13466000  1
  C  C75  1  0.33818900  0.78393000  0.86534000  1
  C  C76  1  0.56421100  0.17906000  0.07106000  1
  C  C77  1  0.43578900  0.82094000  0.92894000  1
  C  C78  1  0.53211500  0.21977000  0.02228000  1
  C  C79  1  0.46788500  0.78023000  0.97772000  1
  H  H80  1  0.56670000  0.27230000  0.03160000  1
  H  H81  1  0.43330000  0.72770000  0.96840000  1
  C  C82  1  0.45081300  0.18608000  0.95973000  1
  C  C83  1  0.54918700  0.81392000  0.04027000  1
  H  H84  1  0.43780000  0.21470000  0.92650000  1
  H  H85  1  0.56220000  0.78530000  0.07350000  1
  C  C86  1  0.39101100  0.11076000  0.94874000  1
  C  C87  1  0.60898900  0.88924000  0.05126000  1
  C  C88  1  0.31061200  0.07049000  0.88373000  1
  C  C89  1  0.68938800  0.92951000  0.11627000  1
  C  C90  1  0.41921200  0.06837000  0.00000000  1
  C  C91  1  0.58078800  0.93163000  0.00256000  1
  H  H92  1  0.38000000  0.01610000  0.98910000  1
  H  H93  1  0.62000000  0.98390000  0.01090000  1
  C  C94  1  0.50451100  0.10256000  0.05806000  1
  C  C95  1  0.49548900  0.89744000  0.94194000  1
  H  H96  1  0.52140000  0.07320000  0.09020000  1
  H  H97  1  0.47860000  0.92680000  0.90980000  1
  C  C98  1  0.01431000  0.29106000  0.24166000  1
  C  C99  1  0.98569000  0.70894000  0.75834000  1
  C  C100  1  0.15710000  0.32776000  0.24706000  1
  C  C101  1  0.84290000  0.67224000  0.75294000  1
  C  C102  1  0.21351000  0.40246000  0.27806000  1
  C  C103  1  0.78649000  0.59754000  0.72194000  1
  H  H104  1  0.16380000  0.43060000  0.29740000  1
  H  H105  1  0.83620000  0.56940000  0.70260000  1
  C  C106  1  0.34441000  0.43486000  0.28007000  1
  C  C107  1  0.65559000  0.56514000  0.71993000  1
  H  H108  1  0.38290000  0.48510000  0.30130000  1
  H  H109  1  0.61710000  0.51490000  0.69870000  1
  C  C110  1  0.42029000  0.39447000  0.25096000  1
  C  C111  1  0.57971000  0.60553000  0.74904000  1
  C  C112  1  0.56611100  0.43718000  0.25606000  1
  C  C113  1  0.43388900  0.56282000  0.74394000  1
  C  C114  1  0.36491000  0.31966000  0.22187000  1
  C  C115  1  0.63509000  0.68034000  0.77813000  1
  H  H116  1  0.41580000  0.29130000  0.20410000  1
  H  H117  1  0.58420000  0.70870000  0.79590000  1
  C  C118  1  0.23551000  0.28696000  0.21897000  1
  C  C119  1  0.76449000  0.71304000  0.78103000  1
  H  H120  1  0.19820000  0.23640000  0.19780000  1
  H  H121  1  0.80180000  0.76360000  0.80220000  1
  C  C122  1  0.01931000  0.58368000  0.21706000  1
  C  C123  1  0.98069000  0.41632000  0.78294000  1
  C  C124  1  0.15681000  0.61516000  0.20656000  1
  C  C125  1  0.84319000  0.38484000  0.79344000  1
  C  C126  1  0.21231000  0.69467000  0.21207000  1
  C  C127  1  0.78769000  0.30533000  0.78793000  1
  H  H128  1  0.16020000  0.72640000  0.21630000  1
  H  H129  1  0.83980000  0.27360000  0.78370000  1
  C  C130  1  0.34410000  0.72497000  0.21116000  1
  C  C131  1  0.65590000  0.27503000  0.78884000  1
  H  H132  1  0.37860000  0.77630000  0.21050000  1
  H  H133  1  0.62140000  0.22370000  0.78950000  1
  C  C134  1  0.42311000  0.67926000  0.21106000  1
  C  C135  1  0.57689000  0.32074000  0.78894000  1
  C  C136  1  0.56811000  0.71266000  0.22225000  1
  C  C137  1  0.43189000  0.28734000  0.77775000  1
  C  C138  1  0.37011000  0.60176000  0.20406000  1
  C  C139  1  0.62989000  0.39824000  0.79594000  1
  H  H140  1  0.42300000  0.57020000  0.20100000  1
  H  H141  1  0.57700000  0.42980000  0.79900000  1
  C  C142  1  0.23581100  0.57067000  0.20156000  1
  C  C143  1  0.76418900  0.42933000  0.79844000  1
  H  H144  1  0.20040000  0.51830000  0.19630000  1
  H  H145  1  0.79960000  0.48170000  0.80370000  1
  C  C146  1  0.68441000  0.49107000  0.11456000  1
  C  C147  1  0.31559000  0.50893000  0.88544000  1
  C  C148  1  0.58991000  0.49527000  0.05446000  1
  C  C149  1  0.41009000  0.50473000  0.94554000  1
  C  C150  1  0.54091000  0.55766000  0.05606000  1
  C  C151  1  0.45909000  0.44234000  0.94394000  1
  H  H152  1  0.56780000  0.59650000  0.09420000  1
  H  H153  1  0.43220000  0.40350000  0.90580000  1
  C  C154  1  0.54601100  0.43837000  0.00000000  1
  C  C155  1  0.45398900  0.56163000  0.00186000  1
  H  H156  1  0.57560000  0.39600000  0.00000000  1
  H  H157  1  0.42440000  0.60400000  0.00340000  1
  C  C158  1  0.88991000  0.50377000  0.36136000  1
  C  C159  1  0.11009000  0.49623000  0.63864000  1
  C  C160  1  0.94639000  0.50176000  0.43435000  1
  C  C161  1  0.05361000  0.49824000  0.56565000  1
  C  C162  1  0.94481100  0.55447000  0.48755000  1
  C  C163  1  0.05518900  0.44553000  0.51245000  1
  H  H164  1  0.90740000  0.59220000  0.47930000  1
  H  H165  1  0.09260000  0.40780000  0.52070000  1
  C  C166  1  0.00141100  0.44626000  0.44475000  1
  C  C167  1  0.00000000  0.55374000  0.55525000  1
  H  H168  1  0.00340000  0.40980000  0.40810000  1
  H  H169  1  0.00000000  0.59020000  0.59190000  1
  O  O172  1  0.63197000  0.05255000  0.23945000  1
  O  O173  1  0.36803000  0.94745000  0.76055000  1
  O  O174  1  0.57007000  0.93745000  0.26226000  1
  O  O175  1  0.42993000  0.06255000  0.73774000  1
  O  O176  1  0.00000000  0.06545000  0.20895000  1
  O  O177  1  0.00087000  0.93455000  0.79105000  1
  O  O178  1  0.94153000  0.95694000  0.24625000  1
  O  O179  1  0.05847000  0.04306000  0.75375000  1
  O  O180  1  0.87157000  0.12135000  0.32164000  1
  O  O181  1  0.12843000  0.87865000  0.67836000  1
  O  O182  1  0.81681000  0.00725000  0.34914000  1
  O  O183  1  0.18319000  0.99275000  0.65086000  1
  O  O184  1  0.10877000  0.27564000  0.66704000  1
  O  O185  1  0.89123000  0.72436000  0.33296000  1
  O  O186  1  0.11657000  0.16194000  0.68534000  1
  O  O187  1  0.88343000  0.83806000  0.31466000  1
  O  O188  1  0.69367000  0.17514000  0.17174000  1
  O  O189  1  0.30633000  0.82486000  0.82826000  1
  O  O190  1  0.70318000  0.28704000  0.14664000  1
  O  O191  1  0.29682000  0.71296000  0.85336000  1
  O  O192  1  0.28611000  0.11036000  0.84095000  1
  O  O193  1  0.71389000  0.88964000  0.15905000  1
  O  O194  1  0.26608000  0.00055000  0.87246000  1
  O  O195  1  0.73392000  0.00000000  0.12754000  1
  O  O196  1  0.97727000  0.22114000  0.23515000  1
  O  O197  1  0.02273000  0.77886000  0.76485000  1
  O  O198  1  0.94286000  0.33294000  0.24734000  1
  O  O199  1  0.05714000  0.66706000  0.75266000  1
  O  O200  1  0.60177000  0.50545000  0.27595000  1
  O  O201  1  0.39823000  0.49455000  0.72405000  1
  O  O202  1  0.62977000  0.39615000  0.23145000  1
  O  O203  1  0.37023000  0.60385000  0.76855000  1
  O  O204  1  0.97387000  0.51524000  0.20904000  1
  O  O205  1  0.02613000  0.48476000  0.79096000  1
  O  O206  1  0.95838000  0.62995000  0.23155000  1
  O  O207  1  0.04162000  0.37005000  0.76845000  1
  O  O208  1  0.61127000  0.78054000  0.23145000  1
  O  O209  1  0.38873000  0.21946000  0.76855000  1
  O  O210  1  0.63637000  0.66924000  0.22044000  1
  O  O211  1  0.36363000  0.33076000  0.77956000  1
  O  O212  1  0.72928000  0.43634000  0.10904000  1
  O  O213  1  0.27072000  0.56366000  0.89096000  1
  O  O214  1  0.71427000  0.54315000  0.16334000  1
  O  O215  1  0.28573000  0.45685000  0.83666000  1
  O  O216  1  0.87268000  0.44545000  0.31694000  1
  O  O217  1  0.12732000  0.55455000  0.68306000  1
  O  O218  1  0.86917000  0.56455000  0.35194000  1
  O  O219  1  0.13083000  0.43545000  0.64806000  1
  Tm  Tm252  1  0.82337400  0.10802300  0.20515200  1
  Tm  Tm253  1  0.17662600  0.89197700  0.79484800  1
  Tm  Tm254  1  0.82746400  0.40084300  0.20225200  1
  Tm  Tm255  1  0.17253600  0.59915700  0.79774800  1
  Tm  Tm256  1  0.76366400  0.61027300  0.27155200  1
  Tm  Tm257  1  0.23633600  0.38972700  0.72844800  1
  Tm  Tm258  1  0.75087400  0.89848300  0.27409200  1
  Tm  Tm259  1  0.24912600  0.10151700  0.72590800  1
