# generated using pymatgen
data_KGdH4(CO2)5
_symmetry_space_group_name_H-M   'P 1'
_cell_length_a   8.89811800
_cell_length_b   16.43430000
_cell_length_c   7.24511400
_cell_angle_alpha   90.00000000
_cell_angle_beta   90.00000000
_cell_angle_gamma   90.00000000
_symmetry_Int_Tables_number   1
_chemical_formula_structural   KGdH4(CO2)5
_chemical_formula_sum   'K4 Gd4 H16 C20 O40'
_cell_volume   1059.48446871
_cell_formula_units_Z   4
loop_
 _symmetry_equiv_pos_site_id
 _symmetry_equiv_pos_as_xyz
  1  'x, y, z'
loop_
 _atom_site_type_symbol
 _atom_site_label
 _atom_site_symmetry_multiplicity
 _atom_site_fract_x
 _atom_site_fract_y
 _atom_site_fract_z
 _atom_site_occupancy
  Gd  Gd8  1  0.48809200  0.38155012  0.50000000  1
  Gd  Gd9  1  0.51190800  0.61844988  0.50000000  1
  Gd  Gd10  1  0.01190800  0.88155012  0.50000000  1
  Gd  Gd11  1  0.98809200  0.11844988  0.50000000  1
  K  K12  1  0.52953150  0.28393800  0.00000000  1
  K  K13  1  0.47046850  0.71606200  0.00000000  1
  K  K14  1  0.97046850  0.78393800  0.00000000  1
  K  K15  1  0.02953150  0.21606200  0.00000000  1
  C  C16  1  0.50000000  0.50000000  0.10866000  1
  C  C17  1  0.00000000  0.00000000  0.89134000  1
  C  C18  1  0.50000000  0.50000000  0.89134000  1
  C  C19  1  0.00000000  0.00000000  0.10866000  1
  C  C20  1  0.27814000  0.22946190  0.39415000  1
  C  C21  1  0.72186000  0.77053810  0.39415000  1
  C  C22  1  0.22186000  0.72946190  0.60585000  1
  C  C23  1  0.77814000  0.27053810  0.60585000  1
  C  C24  1  0.72186000  0.77053810  0.60585000  1
  C  C25  1  0.27814000  0.22946190  0.60585000  1
  C  C26  1  0.77814000  0.27053810  0.39415000  1
  C  C27  1  0.22186000  0.72946190  0.39415000  1
  C  C28  1  0.21176000  0.47583000  0.50000000  1
  C  C29  1  0.78824000  0.52417000  0.50000000  1
  C  C30  1  0.28824000  0.97583000  0.50000000  1
  C  C31  1  0.71176000  0.02417000  0.50000000  1
  C  C32  1  0.07036000  0.52503000  0.50000000  1
  C  C33  1  0.92964000  0.47497000  0.50000000  1
  C  C34  1  0.42964000  0.02503000  0.50000000  1
  C  C35  1  0.57036000  0.97497000  0.50000000  1
  H  H36  1  0.07000000  0.55980000  0.60810000  1
  H  H37  1  0.93000000  0.44020000  0.60810000  1
  H  H38  1  0.43000000  0.05980000  0.39190000  1
  H  H39  1  0.57000000  0.94020000  0.39190000  1
  H  H40  1  0.93000000  0.44020000  0.39190000  1
  H  H41  1  0.07000000  0.55980000  0.39190000  1
  H  H42  1  0.57000000  0.94020000  0.60810000  1
  H  H43  1  0.43000000  0.05980000  0.60810000  1
  O  O44  1  0.47563000  0.43298130  0.18553000  1
  O  O45  1  0.52437000  0.56701870  0.18553000  1
  O  O46  1  0.02437000  0.93298130  0.81447000  1
  O  O47  1  0.97563000  0.06701870  0.81447000  1
  O  O48  1  0.52437000  0.56701870  0.81447000  1
  O  O49  1  0.47563000  0.43298130  0.81447000  1
  O  O50  1  0.97563000  0.06701870  0.18553000  1
  O  O51  1  0.02437000  0.93298130  0.18553000  1
  O  O52  1  0.37303000  0.27369160  0.31644000  1
  O  O53  1  0.62697000  0.72630840  0.31644000  1
  O  O54  1  0.12697000  0.77369160  0.68356000  1
  O  O55  1  0.87303000  0.22630840  0.68356000  1
  O  O56  1  0.62697000  0.72630840  0.68356000  1
  O  O57  1  0.37303000  0.27369160  0.68356000  1
  O  O58  1  0.87303000  0.22630840  0.31644000  1
  O  O59  1  0.12697000  0.77369160  0.31644000  1
  O  O60  1  0.18453000  0.18432150  0.31704000  1
  O  O61  1  0.81547000  0.81567850  0.31704000  1
  O  O62  1  0.31547000  0.68432150  0.68296000  1
  O  O63  1  0.68453000  0.31567850  0.68296000  1
  O  O64  1  0.81547000  0.81567850  0.68296000  1
  O  O65  1  0.18453000  0.18432150  0.68296000  1
  O  O66  1  0.68453000  0.31567850  0.31704000  1
  O  O67  1  0.31547000  0.68432150  0.31704000  1
  O  O68  1  0.21055000  0.40152000  0.50000000  1
  O  O69  1  0.78945000  0.59848000  0.50000000  1
  O  O70  1  0.28945000  0.90152000  0.50000000  1
  O  O71  1  0.71055000  0.09848000  0.50000000  1
  O  O72  1  0.33714000  0.51324190  0.50000000  1
  O  O73  1  0.66286000  0.48675810  0.50000000  1
  O  O74  1  0.16286000  0.01324190  0.50000000  1
  O  O75  1  0.83714000  0.98675810  0.50000000  1
