# generated using pymatgen
data_Li6H26C14S2O25
_symmetry_space_group_name_H-M   'P 1'
_cell_length_a   6.73981300
_cell_length_b   8.92791800
_cell_length_c   11.80320000
_cell_angle_alpha   94.93300000
_cell_angle_beta   96.12300000
_cell_angle_gamma   106.26300000
_symmetry_Int_Tables_number   1
_chemical_formula_structural   Li6H26C14S2O25
_chemical_formula_sum   'Li6 H26 C14 S2 O25'
_cell_volume   672.90689516
_cell_formula_units_Z   1
loop_
 _symmetry_equiv_pos_site_id
 _symmetry_equiv_pos_as_xyz
  1  'x, y, z'
loop_
 _atom_site_type_symbol
 _atom_site_label
 _atom_site_symmetry_multiplicity
 _atom_site_fract_x
 _atom_site_fract_y
 _atom_site_fract_z
 _atom_site_occupancy
  Li  Li0  1  0.67579000  0.11586000  0.97205000  1
  Li  Li1  1  0.32421000  0.88414000  0.02795000  1
  Li  Li2  1  0.88238000  0.31456000  0.21854000  1
  Li  Li3  1  0.11762000  0.68544000  0.78146000  1
  Li  Li4  1  0.52389000  0.60324000  0.41336000  1
  Li  Li5  1  0.47611000  0.39676000  0.58664000  1
  S  S6  1  0.96397100  0.31929700  0.83484500  1
  S  S7  1  0.03602900  0.68070300  0.16515500  1
  O  O8  1  0.13934000  0.28543000  0.89962000  1
  O  O9  1  0.86066000  0.71457000  0.10038000  1
  O  O10  1  0.64313000  0.94487000  0.08272180  1
  O  O11  1  0.35687000  0.05513000  0.91727820  1
  H  H12  1  0.70350000  0.87270000  0.07130000  1
  H  H13  1  0.29650000  0.12730000  0.92870000  1
  H  H14  1  0.67360000  0.98060000  0.15411200  1
  H  H15  1  0.32640000  0.01940000  0.84588800  1
  O  O16  1  0.02995000  0.46382000  0.78502190  1
  O  O17  1  0.97005000  0.53618000  0.21497810  1
  O  O24  1  0.60203000  0.25683000  0.13152000  1
  O  O25  1  0.39797000  0.74317000  0.86848000  1
  H  H26  1  0.50340000  0.18930000  0.15440000  1
  H  H27  1  0.49660000  0.81070000  0.84560000  1
  H  H28  1  0.56350000  0.33530000  0.11540000  1
  H  H29  1  0.43650000  0.66470000  0.88460000  1
  O  O30  1  0.79933000  0.31812000  0.90524180  1
  O  O31  1  0.20067000  0.68188000  0.09475820  1
  O  O32  1  0.73743000  0.97758000  0.84148160  1
  O  O33  1  0.26257000  0.02242000  0.15851840  1
  O  O34  1  0.71683000  0.49957000  0.50053000  1
  O  O35  1  0.28317000  0.50043000  0.49947000  1
  H  H36  1  0.76250000  0.43270000  0.46530000  1
  H  H37  1  0.23750000  0.56730000  0.53470000  1
  H  H38  1  0.81540000  0.57270000  0.53930000  1
  H  H39  1  0.18460000  0.42730000  0.46070000  1
  O  O40  1  0.64583000  0.82908000  0.44027170  1
  O  O41  1  0.35417000  0.17092000  0.55972830  1
  H  H42  1  0.66670000  0.86860000  0.38080000  1
  H  H43  1  0.33330000  0.13140000  0.61920000  1
  O  O50  1  0.76373000  0.03882000  0.31280170  1
  O  O51  1  0.23627000  0.96118000  0.68719830  1
  O  O52  1  0.89853000  0.29072000  0.38365170  1
  O  O53  1  0.10147000  0.70928000  0.61634830  1
  C  C54  1  0.86304000  0.17173000  0.71862000  1
  C  C55  1  0.13696000  0.82827000  0.28138000  1
  C  C56  1  0.76214000  0.01473000  0.73862000  1
  C  C57  1  0.23786000  0.98527000  0.26138000  1
  C  C58  1  0.69294000  0.90317000  0.64042000  1
  C  C59  1  0.30706000  0.09683000  0.35958000  1
  H  H60  1  0.62900000  0.79890000  0.64940000  1
  H  H61  1  0.37100000  0.20110000  0.35060000  1
  C  C62  1  0.71654000  0.94297000  0.53212000  1
  C  C63  1  0.28346000  0.05703000  0.46788000  1
  C  C64  1  0.81114000  0.10013000  0.51292000  1
  C  C65  1  0.18886000  0.89987000  0.48708000  1
  C  C66  1  0.88464000  0.20993000  0.60992000  1
  C  C67  1  0.11536000  0.79007000  0.39008000  1
  H  H68  1  0.95110000  0.31350000  0.60050000  1
  H  H69  1  0.04890000  0.68650000  0.39950000  1
  C  C70  1  0.82654000  0.14563000  0.39722000  1
  C  C71  1  0.17346000  0.85437000  0.60278000  1
