# generated using pymatgen
data_AgH20C14SN3O4
_symmetry_space_group_name_H-M   'P 1'
_cell_length_a   24.04150000
_cell_length_b   10.97420000
_cell_length_c   15.31530000
_cell_angle_alpha   90.00000000
_cell_angle_beta   122.99300000
_cell_angle_gamma   90.00000000
_symmetry_Int_Tables_number   1
_chemical_formula_structural   AgH20C14SN3O4
_chemical_formula_sum   'Ag8 H160 C112 S8 N24 O32'
_cell_volume   3389.11101066
_cell_formula_units_Z   8
loop_
 _symmetry_equiv_pos_site_id
 _symmetry_equiv_pos_as_xyz
  1  'x, y, z'
loop_
 _atom_site_type_symbol
 _atom_site_label
 _atom_site_symmetry_multiplicity
 _atom_site_fract_x
 _atom_site_fract_y
 _atom_site_fract_z
 _atom_site_occupancy
  Ag  Ag0  1  0.16840313  0.62018300  0.11936300  1
  Ag  Ag1  1  0.83159687  0.62018300  0.38063700  1
  Ag  Ag2  1  0.66840313  0.12018300  0.11936300  1
  Ag  Ag3  1  0.33159687  0.12018300  0.38063700  1
  Ag  Ag4  1  0.83159687  0.37981700  0.88063700  1
  Ag  Ag5  1  0.16840313  0.37981700  0.61936300  1
  Ag  Ag6  1  0.33159687  0.87981700  0.88063700  1
  Ag  Ag7  1  0.66840313  0.87981700  0.61936300  1
  S  S8  1  0.23066400  0.29402800  0.14340700  1
  S  S9  1  0.76933600  0.29402800  0.35659300  1
  S  S10  1  0.73066400  0.79402800  0.14340700  1
  S  S11  1  0.26933600  0.79402800  0.35659300  1
  S  S12  1  0.76933600  0.70597200  0.85659300  1
  S  S13  1  0.23066400  0.70597200  0.64340700  1
  S  S14  1  0.26933600  0.20597200  0.85659300  1
  S  S15  1  0.73066400  0.20597200  0.64340700  1
  O  O16  1  0.22367140  0.18043000  0.09042000  1
  O  O17  1  0.77632860  0.18043000  0.40958000  1
  O  O18  1  0.72367140  0.68043000  0.09042000  1
  O  O19  1  0.27632860  0.68043000  0.40958000  1
  O  O20  1  0.77632860  0.81957000  0.90958000  1
  O  O21  1  0.22367140  0.81957000  0.59042000  1
  O  O22  1  0.27632860  0.31957000  0.90958000  1
  O  O23  1  0.72367140  0.31957000  0.59042000  1
  O  O24  1  0.20863160  0.39852000  0.07552000  1
  O  O25  1  0.79136840  0.39852000  0.42448000  1
  O  O26  1  0.70863160  0.89852000  0.07552000  1
  O  O27  1  0.29136840  0.89852000  0.42448000  1
  O  O28  1  0.79136840  0.60148000  0.92448000  1
  O  O29  1  0.20863160  0.60148000  0.57552000  1
  O  O30  1  0.29136840  0.10148000  0.92448000  1
  O  O31  1  0.70863160  0.10148000  0.57552000  1
  O  O32  1  0.29671130  0.30983000  0.23602000  1
  O  O33  1  0.70328870  0.30983000  0.26398000  1
  O  O34  1  0.79671130  0.80983000  0.23602000  1
  O  O35  1  0.20328870  0.80983000  0.26398000  1
  O  O36  1  0.70328870  0.69017000  0.76398000  1
  O  O37  1  0.29671130  0.69017000  0.73602000  1
  O  O38  1  0.20328870  0.19017000  0.76398000  1
  O  O39  1  0.79671130  0.19017000  0.73602000  1
  N  N40  1  0.05935130  0.55813000  0.03622000  1
  N  N41  1  0.94064870  0.55813000  0.46378000  1
  N  N42  1  0.55935130  0.05813000  0.03622000  1
  N  N43  1  0.44064870  0.05813000  0.46378000  1
  N  N44  1  0.94064870  0.44187000  0.96378000  1
  N  N45  1  0.05935130  0.44187000  0.53622000  1
  N  N46  1  0.44064870  0.94187000  0.96378000  1
  N  N47  1  0.55935130  0.94187000  0.53622000  1
  N  N48  1  0.21841130  0.70263000  0.04562000  1
  N  N49  1  0.78158870  0.70263000  0.45438000  1
  N  N50  1  0.71841130  0.20263000  0.04562000  1
  N  N51  1  0.28158870  0.20263000  0.45438000  1
  N  N52  1  0.78158870  0.29737000  0.95438000  1
  N  N53  1  0.21841130  0.29737000  0.54562000  1
  N  N54  1  0.28158870  0.79737000  0.95438000  1
  N  N55  1  0.71841130  0.79737000  0.54562000  1
  N  N56  1  0.21123170  0.48753000  0.26383000  1
  N  N57  1  0.78876830  0.48753000  0.23617000  1
  N  N58  1  0.71123170  0.98753000  0.26383000  1
  N  N59  1  0.28876830  0.98753000  0.23617000  1
  N  N60  1  0.78876830  0.51247000  0.73617000  1
  N  N61  1  0.21123170  0.51247000  0.76383000  1
  N  N62  1  0.28876830  0.01247000  0.73617000  1
  N  N63  1  0.71123170  0.01247000  0.76383000  1
  H  H64  1  0.22031300  0.54130000  0.31030000  1
  H  H65  1  0.77968700  0.54130000  0.18970000  1
  H  H66  1  0.72031300  0.04130000  0.31030000  1
  H  H67  1  0.27968700  0.04130000  0.18970000  1
  H  H68  1  0.77968700  0.45870000  0.68970000  1
  H  H69  1  0.22031300  0.45870000  0.81030000  1
  H  H70  1  0.27968700  0.95870000  0.68970000  1
  H  H71  1  0.72031300  0.95870000  0.81030000  1
  H  H72  1  0.25071000  0.46540000  0.28530000  1
  H  H73  1  0.74929000  0.46540000  0.21470000  1
  H  H74  1  0.75071000  0.96540000  0.28530000  1
  H  H75  1  0.24929000  0.96540000  0.21470000  1
  H  H76  1  0.74929000  0.53460000  0.71470000  1
  H  H77  1  0.25071000  0.53460000  0.78530000  1
  H  H78  1  0.24929000  0.03460000  0.71470000  1
  H  H79  1  0.75071000  0.03460000  0.78530000  1
  C  C80  1  0.26751170  0.64283000  0.04733000  1
  C  C81  1  0.73248830  0.64283000  0.45267000  1
  C  C82  1  0.76751170  0.14283000  0.04733000  1
  C  C83  1  0.23248830  0.14283000  0.45267000  1
  C  C84  1  0.73248830  0.35717000  0.95267000  1
  C  C85  1  0.26751170  0.35717000  0.54733000  1
  C  C86  1  0.23248830  0.85717000  0.95267000  1
  C  C87  1  0.76751170  0.85717000  0.54733000  1
  H  H88  1  0.28060000  0.56740000  0.08010000  1
  H  H89  1  0.71940000  0.56740000  0.41990000  1
  H  H90  1  0.78060000  0.06740000  0.08010000  1
  H  H91  1  0.21940000  0.06740000  0.41990000  1
  H  H92  1  0.71940000  0.43260000  0.91990000  1
  H  H93  1  0.28060000  0.43260000  0.58010000  1
  H  H94  1  0.21940000  0.93260000  0.91990000  1
  H  H95  1  0.78060000  0.93260000  0.58010000  1
  C  C96  1  0.09235180  0.17314000  0.19423000  1
  C  C97  1  0.90764820  0.17314000  0.30577000  1
  C  C98  1  0.59235180  0.67314000  0.19423000  1
  C  C99  1  0.40764820  0.67314000  0.30577000  1
  C  C100  1  0.90764820  0.82686000  0.80577000  1
  C  C101  1  0.09235180  0.82686000  0.69423000  1
  C  C102  1  0.40764820  0.32686000  0.80577000  1
  C  C103  1  0.59235180  0.32686000  0.69423000  1
  C  C104  1  0.13791170  0.18233000  0.16593000  1
  C  C105  1  0.86208830  0.18233000  0.33407000  1
  C  C106  1  0.63791170  0.68233000  0.16593000  1
  C  C107  1  0.36208830  0.68233000  0.33407000  1
  C  C108  1  0.86208830  0.81767000  0.83407000  1
  C  C109  1  0.13791170  0.81767000  0.66593000  1
  C  C110  1  0.36208830  0.31767000  0.83407000  1
  C  C111  1  0.63791170  0.31767000  0.66593000  1
  H  H112  1  0.14250000  0.11780000  0.13090000  1
  H  H113  1  0.85750000  0.11780000  0.36910000  1
  H  H114  1  0.64250000  0.61780000  0.13090000  1
  H  H115  1  0.35750000  0.61780000  0.36910000  1
  H  H116  1  0.85750000  0.88220000  0.86910000  1
  H  H117  1  0.14250000  0.88220000  0.63090000  1
  H  H118  1  0.35750000  0.38220000  0.86910000  1
  H  H119  1  0.64250000  0.38220000  0.63090000  1
  C  C120  1  0.08584190  0.27374000  0.24313000  1
  C  C121  1  0.91415810  0.27374000  0.25687000  1
  C  C122  1  0.58584190  0.77374000  0.24313000  1
  C  C123  1  0.41415810  0.77374000  0.25687000  1
  C  C124  1  0.91415810  0.72626000  0.75687000  1
  C  C125  1  0.08584190  0.72626000  0.74313000  1
  C  C126  1  0.41415810  0.22626000  0.75687000  1
  C  C127  1  0.58584190  0.22626000  0.74313000  1
  H  H128  1  0.05410000  0.27090000  0.25990000  1
  H  H129  1  0.94590000  0.27090000  0.24010000  1
  H  H130  1  0.55410000  0.77090000  0.25990000  1
  H  H131  1  0.44590000  0.77090000  0.24010000  1
  H  H132  1  0.94590000  0.72910000  0.74010000  1
  H  H133  1  0.05410000  0.72910000  0.75990000  1
  H  H134  1  0.44590000  0.22910000  0.74010000  1
  H  H135  1  0.55410000  0.22910000  0.75990000  1
  C  C136  1  0.17669160  0.28493000  0.18852000  1
  C  C137  1  0.82330840  0.28493000  0.31148000  1
  C  C138  1  0.67669160  0.78493000  0.18852000  1
  C  C139  1  0.32330840  0.78493000  0.31148000  1
  C  C140  1  0.82330840  0.71507000  0.81148000  1
  C  C141  1  0.17669160  0.71507000  0.68852000  1
  C  C142  1  0.32330840  0.21507000  0.81148000  1
  C  C143  1  0.67669160  0.21507000  0.68852000  1
  C  C144  1  0.04656160  0.44913000  0.99197000  1
  C  C145  1  0.95343840  0.44913000  0.50803000  1
  C  C146  1  0.54656160  0.94913000  0.99197000  1
  C  C147  1  0.45343840  0.94913000  0.50803000  1
  C  C148  1  0.95343840  0.55087000  0.00803000  1
  C  C149  1  0.04656160  0.55087000  0.49197000  1
  C  C150  1  0.45343840  0.05087000  0.00803000  1
  C  C151  1  0.54656160  0.05087000  0.49197000  1
  H  H152  1  0.07890000  0.41170000  0.98570000  1
  H  H153  1  0.92110000  0.41170000  0.51430000  1
  H  H154  1  0.57890000  0.91170000  0.98570000  1
  H  H155  1  0.42110000  0.91170000  0.51430000  1
  H  H156  1  0.92110000  0.58830000  0.01430000  1
  H  H157  1  0.07890000  0.58830000  0.48570000  1
  H  H158  1  0.42110000  0.08830000  0.01430000  1
  H  H159  1  0.57890000  0.08830000  0.48570000  1
  C  C160  1  0.12412000  0.37763000  0.26803000  1
  C  C161  1  0.87588000  0.37763000  0.23197000  1
  C  C162  1  0.62412000  0.87763000  0.26803000  1
  C  C163  1  0.37588000  0.87763000  0.23197000  1
  C  C164  1  0.87588000  0.62237000  0.73197000  1
  C  C165  1  0.12412000  0.62237000  0.76803000  1
  C  C166  1  0.37588000  0.12237000  0.73197000  1
  C  C167  1  0.62412000  0.12237000  0.76803000  1
  C  C168  1  0.11443000  0.48414000  0.32064000  1
  C  C169  1  0.88557000  0.48414000  0.17936000  1
  C  C170  1  0.61443000  0.98414000  0.32064000  1
  C  C171  1  0.38557000  0.98414000  0.17936000  1
  C  C172  1  0.88557000  0.51586000  0.67936000  1
  C  C173  1  0.11443000  0.51586000  0.82064000  1
  C  C174  1  0.38557000  0.01586000  0.67936000  1
  C  C175  1  0.61443000  0.01586000  0.82064000  1
  H  H176  1  0.14490000  0.54790000  0.33140000  1
  H  H177  1  0.85510000  0.54790000  0.16860000  1
  H  H178  1  0.64490000  0.04790000  0.33140000  1
  H  H179  1  0.35510000  0.04790000  0.16860000  1
  H  H180  1  0.85510000  0.45210000  0.66860000  1
  H  H181  1  0.14490000  0.45210000  0.83140000  1
  H  H182  1  0.35510000  0.95210000  0.66860000  1
  H  H183  1  0.64490000  0.95210000  0.83140000  1
  H  H184  1  0.12250000  0.45850000  0.38640000  1
  H  H185  1  0.87750000  0.45850000  0.11360000  1
  H  H186  1  0.62250000  0.95850000  0.38640000  1
  H  H187  1  0.37750000  0.95850000  0.11360000  1
  H  H188  1  0.87750000  0.54150000  0.61360000  1
  H  H189  1  0.12250000  0.54150000  0.88640000  1
  H  H190  1  0.37750000  0.04150000  0.61360000  1
  H  H191  1  0.62250000  0.04150000  0.88640000  1
  H  H192  1  0.06980000  0.51360000  0.27730000  1
  H  H193  1  0.93020000  0.51360000  0.22270000  1
  H  H194  1  0.56980000  0.01360000  0.27730000  1
  H  H195  1  0.43020000  0.01360000  0.22270000  1
  H  H196  1  0.93020000  0.48640000  0.72270000  1
  H  H197  1  0.06980000  0.48640000  0.77730000  1
  H  H198  1  0.43020000  0.98640000  0.72270000  1
  H  H199  1  0.56980000  0.98640000  0.77730000  1
  C  C200  1  0.17156170  0.38273000  0.24243000  1
  C  C201  1  0.82843830  0.38273000  0.25757000  1
  C  C202  1  0.67156170  0.88273000  0.24243000  1
  C  C203  1  0.32843830  0.88273000  0.25757000  1
  C  C204  1  0.82843830  0.61727000  0.75757000  1
  C  C205  1  0.17156170  0.61727000  0.74243000  1
  C  C206  1  0.32843830  0.11727000  0.75757000  1
  C  C207  1  0.67156170  0.11727000  0.74243000  1
  C  C208  1  0.05172000  0.06064000  0.17154000  1
  C  C209  1  0.94828000  0.06064000  0.32846000  1
  C  C210  1  0.55172000  0.56064000  0.17154000  1
  C  C211  1  0.44828000  0.56064000  0.32846000  1
  C  C212  1  0.94828000  0.93936000  0.82846000  1
  C  C213  1  0.05172000  0.93936000  0.67154000  1
  C  C214  1  0.44828000  0.43936000  0.82846000  1
  C  C215  1  0.55172000  0.43936000  0.67154000  1
  H  H216  1  0.02320000  0.07050000  0.19680000  1
  H  H217  1  0.97680000  0.07050000  0.30320000  1
  H  H218  1  0.52320000  0.57050000  0.19680000  1
  H  H219  1  0.47680000  0.57050000  0.30320000  1
  H  H220  1  0.97680000  0.92950000  0.80320000  1
  H  H221  1  0.02320000  0.92950000  0.69680000  1
  H  H222  1  0.47680000  0.42950000  0.80320000  1
  H  H223  1  0.52320000  0.42950000  0.69680000  1
  H  H224  1  0.08050000  0.99220000  0.20540000  1
  H  H225  1  0.91950000  0.99220000  0.29460000  1
  H  H226  1  0.58050000  0.49220000  0.20540000  1
  H  H227  1  0.41950000  0.49220000  0.29460000  1
  H  H228  1  0.91950000  0.00780000  0.79460000  1
  H  H229  1  0.08050000  0.00780000  0.70540000  1
  H  H230  1  0.41950000  0.50780000  0.79460000  1
  H  H231  1  0.58050000  0.50780000  0.70540000  1
  H  H232  1  0.02530000  0.04690000  0.09770000  1
  H  H233  1  0.97470000  0.04690000  0.40230000  1
  H  H234  1  0.52530000  0.54690000  0.09770000  1
  H  H235  1  0.47470000  0.54690000  0.40230000  1
  H  H236  1  0.97470000  0.95310000  0.90230000  1
  H  H237  1  0.02530000  0.95310000  0.59770000  1
  H  H238  1  0.47470000  0.45310000  0.90230000  1
  H  H239  1  0.52530000  0.45310000  0.59770000  1
  C  C240  1  0.01282170  0.61163000  0.04513000  1
  C  C241  1  0.98717830  0.61163000  0.45487000  1
  C  C242  1  0.51282170  0.11163000  0.04513000  1
  C  C243  1  0.48717830  0.11163000  0.45487000  1
  C  C244  1  0.98717830  0.38837000  0.95487000  1
  C  C245  1  0.01282170  0.38837000  0.54513000  1
  C  C246  1  0.48717830  0.88837000  0.95487000  1
  C  C247  1  0.51282170  0.88837000  0.54513000  1
  C  C248  1  0.20054160  0.81113000  0.00000000  1
  C  C249  1  0.79945840  0.81113000  0.50223000  1
  C  C250  1  0.70054160  0.31113000  0.00000000  1
  C  C251  1  0.29945840  0.31113000  0.50223000  1
  C  C252  1  0.79945840  0.18887000  0.00223000  1
  C  C253  1  0.20054160  0.18887000  0.49777000  1
  C  C254  1  0.29945840  0.68887000  0.00223000  1
  C  C255  1  0.70054160  0.68887000  0.49777000  1
  C  C256  1  0.14502000  0.87744000  0.99316000  1
  C  C257  1  0.85498000  0.87744000  0.50684000  1
  C  C258  1  0.64502000  0.37744000  0.99316000  1
  C  C259  1  0.35498000  0.37744000  0.50684000  1
  C  C260  1  0.85498000  0.12256000  0.00684000  1
  C  C261  1  0.14502000  0.12256000  0.49316000  1
  C  C262  1  0.35498000  0.62256000  0.00684000  1
  C  C263  1  0.64502000  0.62256000  0.49316000  1
  H  H264  1  0.12920000  0.83080000  0.02860000  1
  H  H265  1  0.87080000  0.83080000  0.47140000  1
  H  H266  1  0.62920000  0.33080000  0.02860000  1
  H  H267  1  0.37080000  0.33080000  0.47140000  1
  H  H268  1  0.87080000  0.16920000  0.97140000  1
  H  H269  1  0.12920000  0.16920000  0.52860000  1
  H  H270  1  0.37080000  0.66920000  0.97140000  1
  H  H271  1  0.62920000  0.66920000  0.52860000  1
  H  H272  1  0.10950000  0.88860000  0.92180000  1
  H  H273  1  0.89050000  0.88860000  0.57820000  1
  H  H274  1  0.60950000  0.38860000  0.92180000  1
  H  H275  1  0.39050000  0.38860000  0.57820000  1
  H  H276  1  0.89050000  0.11140000  0.07820000  1
  H  H277  1  0.10950000  0.11140000  0.42180000  1
  H  H278  1  0.39050000  0.61140000  0.07820000  1
  H  H279  1  0.60950000  0.61140000  0.42180000  1
  H  H280  1  0.16030000  0.95540000  0.02620000  1
  H  H281  1  0.83970000  0.95540000  0.47380000  1
  H  H282  1  0.66030000  0.45540000  0.02620000  1
  H  H283  1  0.33970000  0.45540000  0.47380000  1
  H  H284  1  0.83970000  0.04460000  0.97380000  1
  H  H285  1  0.16030000  0.04460000  0.52620000  1
  H  H286  1  0.33970000  0.54460000  0.97380000  1
  H  H287  1  0.66030000  0.54460000  0.52620000  1
  C  C288  1  0.02522000  0.73474000  0.09334000  1
  C  C289  1  0.97478000  0.73474000  0.40666000  1
  C  C290  1  0.52522000  0.23474000  0.09334000  1
  C  C291  1  0.47478000  0.23474000  0.40666000  1
  C  C292  1  0.97478000  0.26526000  0.90666000  1
  C  C293  1  0.02522000  0.26526000  0.59334000  1
  C  C294  1  0.47478000  0.76526000  0.90666000  1
  C  C295  1  0.52522000  0.76526000  0.59334000  1
  H  H296  1  0.06870000  0.76180000  0.11420000  1
  H  H297  1  0.93130000  0.76180000  0.38580000  1
  H  H298  1  0.56870000  0.26180000  0.11420000  1
  H  H299  1  0.43130000  0.26180000  0.38580000  1
  H  H300  1  0.93130000  0.23820000  0.88580000  1
  H  H301  1  0.06870000  0.23820000  0.61420000  1
  H  H302  1  0.43130000  0.73820000  0.88580000  1
  H  H303  1  0.56870000  0.73820000  0.61420000  1
  H  H304  1  0.02210000  0.73070000  0.15320000  1
  H  H305  1  0.97790000  0.73070000  0.34680000  1
  H  H306  1  0.52210000  0.23070000  0.15320000  1
  H  H307  1  0.47790000  0.23070000  0.34680000  1
  H  H308  1  0.97790000  0.26930000  0.84680000  1
  H  H309  1  0.02210000  0.26930000  0.65320000  1
  H  H310  1  0.47790000  0.76930000  0.84680000  1
  H  H311  1  0.52210000  0.76930000  0.65320000  1
  H  H312  1  0.99270000  0.79090000  0.04370000  1
  H  H313  1  0.00730000  0.79090000  0.45630000  1
  H  H314  1  0.49270000  0.29090000  0.04370000  1
  H  H315  1  0.50730000  0.29090000  0.45630000  1
  H  H316  1  0.00730000  0.20910000  0.95630000  1
  H  H317  1  0.99270000  0.20910000  0.54370000  1
  H  H318  1  0.50730000  0.70910000  0.95630000  1
  H  H319  1  0.49270000  0.70910000  0.54370000  1
