# generated using pymatgen
data_H36Pb2C26N2O9
_symmetry_space_group_name_H-M   'P 1'
_cell_length_a   20.30040000
_cell_length_b   20.14340000
_cell_length_c   8.14701600
_cell_angle_alpha   90.00000000
_cell_angle_beta   109.71300000
_cell_angle_gamma   90.00000000
_symmetry_Int_Tables_number   1
_chemical_formula_structural   H36Pb2C26N2O9
_chemical_formula_sum   'H144 Pb8 C104 N8 O36'
_cell_volume   3136.22623979
_cell_formula_units_Z   4
loop_
 _symmetry_equiv_pos_site_id
 _symmetry_equiv_pos_as_xyz
  1  'x, y, z'
loop_
 _atom_site_type_symbol
 _atom_site_label
 _atom_site_symmetry_multiplicity
 _atom_site_fract_x
 _atom_site_fract_y
 _atom_site_fract_z
 _atom_site_occupancy
  N  N0  1  0.16612000  0.14732000  0.13715000  1
  N  N1  1  0.83388000  0.14732000  0.36285000  1
  N  N2  1  0.66612000  0.64732000  0.13715000  1
  N  N3  1  0.33388000  0.64732000  0.36285000  1
  N  N4  1  0.83388000  0.85268000  0.86285000  1
  N  N5  1  0.16612000  0.85268000  0.63715000  1
  N  N6  1  0.33388000  0.35268000  0.86285000  1
  N  N7  1  0.66612000  0.35268000  0.63715000  1
  O  O8  1  0.16472000  0.01782000  0.65315000  1
  O  O9  1  0.83528000  0.01782000  0.84685000  1
  O  O10  1  0.66472000  0.51782000  0.65315000  1
  O  O11  1  0.33528000  0.51782000  0.84685000  1
  O  O12  1  0.83528000  0.98218000  0.34685000  1
  O  O13  1  0.16472000  0.98218000  0.15315000  1
  O  O14  1  0.33528000  0.48218000  0.34685000  1
  O  O15  1  0.66472000  0.48218000  0.15315000  1
  O  O16  1  0.01412000  0.11652000  0.55626000  1
  O  O17  1  0.98588000  0.11652000  0.94374000  1
  O  O18  1  0.51412000  0.61652000  0.55626000  1
  O  O19  1  0.48588000  0.61652000  0.94374000  1
  O  O20  1  0.98588000  0.88348000  0.44374000  1
  O  O21  1  0.01412000  0.88348000  0.05626000  1
  O  O22  1  0.48588000  0.38348000  0.44374000  1
  O  O23  1  0.51412000  0.38348000  0.05626000  1
  O  O24  1  0.09462000  0.17766180  0.74185000  1
  O  O25  1  0.90538000  0.17766180  0.75815000  1
  O  O26  1  0.59462000  0.67766180  0.74185000  1
  O  O27  1  0.40538000  0.67766180  0.75815000  1
  O  O28  1  0.90538000  0.82233820  0.25815000  1
  O  O29  1  0.09462000  0.82233820  0.24185000  1
  O  O30  1  0.40538000  0.32233820  0.25815000  1
  O  O31  1  0.59462000  0.32233820  0.24185000  1
  O  O32  1  0.22262000  0.08482000  0.86174000  1
  O  O33  1  0.77738000  0.08482000  0.63826000  1
  O  O34  1  0.72262000  0.58482000  0.86174000  1
  O  O35  1  0.27738000  0.58482000  0.63826000  1
  O  O36  1  0.77738000  0.91518000  0.13826000  1
  O  O37  1  0.22262000  0.91518000  0.36174000  1
  O  O38  1  0.27738000  0.41518000  0.13826000  1
  O  O39  1  0.72262000  0.41518000  0.36174000  1
  C  C40  1  0.16102000  0.13582000  0.29306000  1
  C  C41  1  0.83898000  0.13582000  0.20694000  1
  C  C42  1  0.66102000  0.63582000  0.29306000  1
  C  C43  1  0.33898000  0.63582000  0.20694000  1
  C  C44  1  0.83898000  0.86418000  0.70694000  1
  C  C45  1  0.16102000  0.86418000  0.79306000  1
  C  C46  1  0.33898000  0.36418000  0.70694000  1
  C  C47  1  0.66102000  0.36418000  0.79306000  1
  H  H48  1  0.13470000  0.09960000  0.30530000  1
  H  H49  1  0.86530000  0.09960000  0.19470000  1
  H  H50  1  0.63470000  0.59960000  0.30530000  1
  H  H51  1  0.36530000  0.59960000  0.19470000  1
  H  H52  1  0.86530000  0.90040000  0.69470000  1
  H  H53  1  0.13470000  0.90040000  0.80530000  1
  H  H54  1  0.36530000  0.40040000  0.69470000  1
  H  H55  1  0.63470000  0.40040000  0.80530000  1
  C  C56  1  0.04323000  0.17143000  0.60514000  1
  C  C57  1  0.95677000  0.17143000  0.89486000  1
  C  C58  1  0.54323000  0.67143000  0.60514000  1
  C  C59  1  0.45677000  0.67143000  0.89486000  1
  C  C60  1  0.95677000  0.82857000  0.39486000  1
  C  C61  1  0.04323000  0.82857000  0.10514000  1
  C  C62  1  0.45677000  0.32857000  0.39486000  1
  C  C63  1  0.54323000  0.32857000  0.10514000  1
  C  C64  1  0.21993000  0.04443000  0.74104000  1
  C  C65  1  0.78007000  0.04443000  0.75896000  1
  C  C66  1  0.71993000  0.54443000  0.74104000  1
  C  C67  1  0.28007000  0.54443000  0.75896000  1
  C  C68  1  0.78007000  0.95557000  0.25896000  1
  C  C69  1  0.21993000  0.95557000  0.24104000  1
  C  C70  1  0.28007000  0.45557000  0.25896000  1
  C  C71  1  0.71993000  0.45557000  0.24104000  1
  C  C72  1  0.20325000  0.19894000  0.12397000  1
  C  C73  1  0.79675000  0.19894000  0.37603000  1
  C  C74  1  0.70325000  0.69894000  0.12397000  1
  C  C75  1  0.29675000  0.69894000  0.37603000  1
  C  C76  1  0.79675000  0.80106000  0.87603000  1
  C  C77  1  0.20325000  0.80106000  0.62397000  1
  C  C78  1  0.29675000  0.30106000  0.87603000  1
  C  C79  1  0.70325000  0.30106000  0.62397000  1
  H  H80  1  0.20710000  0.20800000  0.01560000  1
  H  H81  1  0.79290000  0.20800000  0.48440000  1
  H  H82  1  0.70710000  0.70800000  0.01560000  1
  H  H83  1  0.29290000  0.70800000  0.48440000  1
  H  H84  1  0.79290000  0.79200000  0.98440000  1
  H  H85  1  0.20710000  0.79200000  0.51560000  1
  H  H86  1  0.29290000  0.29200000  0.98440000  1
  H  H87  1  0.70710000  0.29200000  0.51560000  1
  C  C88  1  0.23685000  0.24084000  0.26107000  1
  C  C89  1  0.76315000  0.24084000  0.23893000  1
  C  C90  1  0.73685000  0.74084000  0.26107000  1
  C  C91  1  0.26315000  0.74084000  0.23893000  1
  C  C92  1  0.76315000  0.75916000  0.73893000  1
  C  C93  1  0.23685000  0.75916000  0.76107000  1
  C  C94  1  0.26315000  0.25916000  0.73893000  1
  C  C95  1  0.73685000  0.25916000  0.76107000  1
  H  H96  1  0.26240000  0.27690000  0.24410000  1
  H  H97  1  0.73760000  0.27690000  0.25590000  1
  H  H98  1  0.76240000  0.77690000  0.24410000  1
  H  H99  1  0.23760000  0.77690000  0.25590000  1
  H  H100  1  0.73760000  0.72310000  0.75590000  1
  H  H101  1  0.26240000  0.72310000  0.74410000  1
  H  H102  1  0.23760000  0.22310000  0.75590000  1
  H  H103  1  0.76240000  0.22310000  0.74410000  1
  C  C104  1  0.23212000  0.22842000  0.42345000  1
  C  C105  1  0.76788000  0.22842000  0.07655000  1
  C  C106  1  0.73212000  0.72842000  0.42345000  1
  C  C107  1  0.26788000  0.72842000  0.07655000  1
  C  C108  1  0.76788000  0.77158000  0.57655000  1
  C  C109  1  0.23212000  0.77158000  0.92345000  1
  C  C110  1  0.26788000  0.27158000  0.57655000  1
  C  C111  1  0.73212000  0.27158000  0.92345000  1
  C  C112  1  0.19272000  0.17452000  0.43715000  1
  C  C113  1  0.80728000  0.17452000  0.06285000  1
  C  C114  1  0.69272000  0.67452000  0.43715000  1
  C  C115  1  0.30728000  0.67452000  0.06285000  1
  C  C116  1  0.80728000  0.82548000  0.56285000  1
  C  C117  1  0.19272000  0.82548000  0.93715000  1
  C  C118  1  0.30728000  0.32548000  0.56285000  1
  C  C119  1  0.69272000  0.32548000  0.93715000  1
  H  H120  1  0.18750000  0.16430000  0.54330000  1
  H  H121  1  0.81250000  0.16430000  0.95670000  1
  H  H122  1  0.68750000  0.66430000  0.54330000  1
  H  H123  1  0.31250000  0.66430000  0.95670000  1
  H  H124  1  0.81250000  0.83570000  0.45670000  1
  H  H125  1  0.18750000  0.83570000  0.04330000  1
  H  H126  1  0.31250000  0.33570000  0.45670000  1
  H  H127  1  0.68750000  0.33570000  0.04330000  1
  C  C128  1  0.01555000  0.23354000  0.50328800  1
  C  C129  1  0.98445000  0.23354000  0.00000000  1
  C  C130  1  0.51555000  0.73354000  0.50328800  1
  C  C131  1  0.48445000  0.73354000  0.00000000  1
  C  C132  1  0.98445000  0.76646000  0.49671200  1
  C  C133  1  0.01555000  0.76646000  0.00328800  1
  C  C134  1  0.48445000  0.26646000  0.49671200  1
  C  C135  1  0.51555000  0.26646000  0.00328800  1
  H  H136  1  0.00290000  0.22150000  0.38120000  1
  H  H137  1  0.00000000  0.22150000  0.11880000  1
  H  H138  1  0.50290000  0.72150000  0.38120000  1
  H  H139  1  0.49710000  0.72150000  0.11880000  1
  H  H140  1  0.00000000  0.77850000  0.61880000  1
  H  H141  1  0.00290000  0.77850000  0.88120000  1
  H  H142  1  0.49710000  0.27850000  0.61880000  1
  H  H143  1  0.50290000  0.27850000  0.88120000  1
  H  H144  1  0.97210000  0.24380000  0.52290000  1
  H  H145  1  0.02790000  0.24380000  0.97710000  1
  H  H146  1  0.47210000  0.74380000  0.52290000  1
  H  H147  1  0.52790000  0.74380000  0.97710000  1
  H  H148  1  0.02790000  0.75620000  0.47710000  1
  H  H149  1  0.97210000  0.75620000  0.02290000  1
  H  H150  1  0.52790000  0.25620000  0.47710000  1
  H  H151  1  0.47210000  0.25620000  0.02290000  1
  C  C152  1  0.28624000  0.02985000  0.70598900  1
  C  C153  1  0.71376000  0.02985000  0.79401100  1
  C  C154  1  0.78624000  0.52985000  0.70598900  1
  C  C155  1  0.21376000  0.52985000  0.79401100  1
  C  C156  1  0.71376000  0.97015000  0.29401100  1
  C  C157  1  0.28624000  0.97015000  0.20598900  1
  C  C158  1  0.21376000  0.47015000  0.29401100  1
  C  C159  1  0.78624000  0.47015000  0.20598900  1
  H  H160  1  0.29430000  0.98240000  0.72010000  1
  H  H161  1  0.70570000  0.98240000  0.77990000  1
  H  H162  1  0.79430000  0.48240000  0.72010000  1
  H  H163  1  0.20570000  0.48240000  0.77990000  1
  H  H164  1  0.70570000  0.01760000  0.27990000  1
  H  H165  1  0.29430000  0.01760000  0.22010000  1
  H  H166  1  0.20570000  0.51760000  0.27990000  1
  H  H167  1  0.79430000  0.51760000  0.22010000  1
  H  H168  1  0.27790000  0.03990000  0.58420000  1
  H  H169  1  0.72210000  0.03990000  0.91580000  1
  H  H170  1  0.77790000  0.53990000  0.58420000  1
  H  H171  1  0.22210000  0.53990000  0.91580000  1
  H  H172  1  0.72210000  0.96010000  0.41580000  1
  H  H173  1  0.27790000  0.96010000  0.08420000  1
  H  H174  1  0.22210000  0.46010000  0.41580000  1
  H  H175  1  0.77790000  0.46010000  0.08420000  1
  C  C176  1  0.34976000  0.06228000  0.80570000  1
  C  C177  1  0.65024000  0.06228000  0.69430000  1
  C  C178  1  0.84976000  0.56228000  0.80570000  1
  C  C179  1  0.15024000  0.56228000  0.69430000  1
  C  C180  1  0.65024000  0.93772000  0.19430000  1
  C  C181  1  0.34976000  0.93772000  0.30570000  1
  C  C182  1  0.15024000  0.43772000  0.19430000  1
  C  C183  1  0.84976000  0.43772000  0.30570000  1
  H  H184  1  0.35780000  0.05530000  0.92870000  1
  H  H185  1  0.64220000  0.05530000  0.57130000  1
  H  H186  1  0.85780000  0.55530000  0.92870000  1
  H  H187  1  0.14220000  0.55530000  0.57130000  1
  H  H188  1  0.64220000  0.94470000  0.07130000  1
  H  H189  1  0.35780000  0.94470000  0.42870000  1
  H  H190  1  0.14220000  0.44470000  0.07130000  1
  H  H191  1  0.85780000  0.44470000  0.42870000  1
  H  H192  1  0.34490000  0.10960000  0.78320000  1
  H  H193  1  0.65510000  0.10960000  0.71680000  1
  H  H194  1  0.84490000  0.60960000  0.78320000  1
  H  H195  1  0.15510000  0.60960000  0.71680000  1
  H  H196  1  0.65510000  0.89040000  0.21680000  1
  H  H197  1  0.34490000  0.89040000  0.28320000  1
  H  H198  1  0.15510000  0.39040000  0.21680000  1
  H  H199  1  0.84490000  0.39040000  0.28320000  1
  C  C200  1  0.05161200  0.29156000  0.52270000  1
  C  C201  1  0.94838800  0.29156000  0.97730000  1
  C  C202  1  0.55161200  0.79156000  0.52270000  1
  C  C203  1  0.44838800  0.79156000  0.97730000  1
  C  C204  1  0.94838800  0.70844000  0.47730000  1
  C  C205  1  0.05161200  0.70844000  0.02270000  1
  C  C206  1  0.44838800  0.20844000  0.47730000  1
  C  C207  1  0.55161200  0.20844000  0.02270000  1
  H  H208  1  0.02010000  0.32280000  0.44450000  1
  H  H209  1  0.97990000  0.32280000  0.05550000  1
  H  H210  1  0.52010000  0.82280000  0.44450000  1
  H  H211  1  0.47990000  0.82280000  0.05550000  1
  H  H212  1  0.97990000  0.67720000  0.55550000  1
  H  H213  1  0.02010000  0.67720000  0.94450000  1
  H  H214  1  0.47990000  0.17720000  0.55550000  1
  H  H215  1  0.52010000  0.17720000  0.94450000  1
  H  H216  1  0.08890000  0.28340000  0.47610000  1
  H  H217  1  0.91110000  0.28340000  0.02390000  1
  H  H218  1  0.58890000  0.78340000  0.47610000  1
  H  H219  1  0.41110000  0.78340000  0.02390000  1
  H  H220  1  0.91110000  0.71660000  0.52390000  1
  H  H221  1  0.08890000  0.71660000  0.97610000  1
  H  H222  1  0.41110000  0.21660000  0.52390000  1
  H  H223  1  0.58890000  0.21660000  0.97610000  1
  C  C224  1  0.41187000  0.03681200  0.76170000  1
  C  C225  1  0.58813000  0.03681200  0.73830000  1
  C  C226  1  0.91187000  0.53681200  0.76170000  1
  C  C227  1  0.08813000  0.53681200  0.73830000  1
  C  C228  1  0.58813000  0.96318800  0.23830000  1
  C  C229  1  0.41187000  0.96318800  0.26170000  1
  C  C230  1  0.08813000  0.46318800  0.23830000  1
  C  C231  1  0.91187000  0.46318800  0.26170000  1
  H  H232  1  0.45340000  0.05930000  0.83330000  1
  H  H233  1  0.54660000  0.05930000  0.66670000  1
  H  H234  1  0.95340000  0.55930000  0.83330000  1
  H  H235  1  0.04660000  0.55930000  0.66670000  1
  H  H236  1  0.54660000  0.94070000  0.16670000  1
  H  H237  1  0.45340000  0.94070000  0.33330000  1
  H  H238  1  0.04660000  0.44070000  0.16670000  1
  H  H239  1  0.95340000  0.44070000  0.33330000  1
  H  H240  1  0.40480000  0.04500000  0.64150000  1
  H  H241  1  0.59520000  0.04500000  0.85850000  1
  H  H242  1  0.90480000  0.54500000  0.64150000  1
  H  H243  1  0.09520000  0.54500000  0.85850000  1
  H  H244  1  0.59520000  0.95500000  0.35850000  1
  H  H245  1  0.40480000  0.95500000  0.14150000  1
  H  H246  1  0.09520000  0.45500000  0.35850000  1
  H  H247  1  0.90480000  0.45500000  0.14150000  1
  H  H248  1  0.41690000  0.99000000  0.78470000  1
  H  H249  1  0.58310000  0.99000000  0.71530000  1
  H  H250  1  0.91690000  0.49000000  0.78470000  1
  H  H251  1  0.08310000  0.49000000  0.71530000  1
  H  H252  1  0.58310000  0.01000000  0.21530000  1
  H  H253  1  0.41690000  0.01000000  0.28470000  1
  H  H254  1  0.08310000  0.51000000  0.21530000  1
  H  H255  1  0.91690000  0.51000000  0.28470000  1
  C  C256  1  0.08301400  0.32651200  0.68060000  1
  C  C257  1  0.91698600  0.32651200  0.81940000  1
  C  C258  1  0.58301400  0.82651200  0.68060000  1
  C  C259  1  0.41698600  0.82651200  0.81940000  1
  C  C260  1  0.91698600  0.67348800  0.31940000  1
  C  C261  1  0.08301400  0.67348800  0.18060000  1
  C  C262  1  0.41698600  0.17348800  0.31940000  1
  C  C263  1  0.58301400  0.17348800  0.18060000  1
  H  H264  1  0.11070000  0.36230000  0.66210000  1
  H  H265  1  0.88930000  0.36230000  0.83790000  1
  H  H266  1  0.61070000  0.86230000  0.66210000  1
  H  H267  1  0.38930000  0.86230000  0.83790000  1
  H  H268  1  0.88930000  0.63770000  0.33790000  1
  H  H269  1  0.11070000  0.63770000  0.16210000  1
  H  H270  1  0.38930000  0.13770000  0.33790000  1
  H  H271  1  0.61070000  0.13770000  0.16210000  1
  H  H272  1  0.11240000  0.29690000  0.76750000  1
  H  H273  1  0.88760000  0.29690000  0.73250000  1
  H  H274  1  0.61240000  0.79690000  0.76750000  1
  H  H275  1  0.38760000  0.79690000  0.73250000  1
  H  H276  1  0.88760000  0.70310000  0.23250000  1
  H  H277  1  0.11240000  0.70310000  0.26750000  1
  H  H278  1  0.38760000  0.20310000  0.23250000  1
  H  H279  1  0.61240000  0.20310000  0.26750000  1
  H  H280  1  0.04720000  0.34400000  0.72170000  1
  H  H281  1  0.95280000  0.34400000  0.77830000  1
  H  H282  1  0.54720000  0.84400000  0.72170000  1
  H  H283  1  0.45280000  0.84400000  0.77830000  1
  H  H284  1  0.95280000  0.65600000  0.27830000  1
  H  H285  1  0.04720000  0.65600000  0.22170000  1
  H  H286  1  0.45280000  0.15600000  0.27830000  1
  H  H287  1  0.54720000  0.15600000  0.22170000  1
  Pb  Pb292  1  0.10679170  0.06968370  0.87607484  1
  Pb  Pb293  1  0.89320830  0.06968370  0.62392516  1
  Pb  Pb294  1  0.60679170  0.56968370  0.87607484  1
  Pb  Pb295  1  0.39320830  0.56968370  0.62392516  1
  Pb  Pb296  1  0.89320830  0.93031630  0.12392516  1
  Pb  Pb297  1  0.10679170  0.93031630  0.37607484  1
  Pb  Pb298  1  0.39320830  0.43031630  0.12392516  1
  Pb  Pb299  1  0.60679170  0.43031630  0.37607484  1
