data_image0
_cell_length_a       6.79553
_cell_length_b       15.0055
_cell_length_c       15.0076
_cell_angle_alpha    117.872
_cell_angle_beta     98.6664
_cell_angle_gamma    98.6705

_symmetry_space_group_name_H-M    "P 1"
_symmetry_int_tables_number       1

loop_
  _symmetry_equiv_pos_as_xyz
  'x, y, z'

loop_
  _atom_site_label
  _atom_site_occupancy
  _atom_site_fract_x
  _atom_site_fract_y
  _atom_site_fract_z
  _atom_site_thermal_displace_type
  _atom_site_B_iso_or_equiv
  _atom_site_type_symbol
  C1       1.0000 0.96841  0.52606  0.10139  Biso   1.000  C
  C2       1.0000 0.91606  0.08749  0.54095  Biso   1.000  C
  C3       1.0000 0.86692  0.89844  0.42498  Biso   1.000  C
  C4       1.0000 0.82862  0.45383  0.91261  Biso   1.000  C
  C5       1.0000 0.80981  0.17285  0.57686  Biso   1.000  C
  C6       1.0000 0.80377  0.47984  0.01219  Biso   1.000  C
  C7       1.0000 0.79153  0.98773  0.46767  Biso   1.000  C
  C8       1.0000 0.76720  0.57676  0.40426  Biso   1.000  C
  C9       1.0000 0.67609  0.46761  0.47985  Biso   1.000  C
  C10      1.0000 0.63709  0.40464  0.82731  Biso   1.000  C
  C11      1.0000 0.62499  0.54090  0.45360  Biso   1.000  C
  C12      1.0000 0.55789  0.42496  0.52630  Biso   1.000  C
  C13      1.0000 0.44209  0.57505  0.47370  Biso   1.000  C
  C14      1.0000 0.37501  0.45912  0.54642  Biso   1.000  C
  C15      1.0000 0.36291  0.59537  0.17270  Biso   1.000  C
  C16      1.0000 0.32392  0.53242  0.52017  Biso   1.000  C
  C17      1.0000 0.23280  0.42327  0.59575  Biso   1.000  C
  C18      1.0000 0.20847  0.01229  0.53234  Biso   1.000  C
  C19      1.0000 0.19623  0.52018  0.98782  Biso   1.000  C
  C20      1.0000 0.19019  0.82717  0.42314  Biso   1.000  C
  C21      1.0000 0.17138  0.54619  0.08740  Biso   1.000  C
  C22      1.0000 0.13308  0.10158  0.57503  Biso   1.000  C
  C23      1.0000 0.08394  0.91253  0.45906  Biso   1.000  C
  C24      1.0000 0.03159  0.47395  0.89863  Biso   1.000  C
  H1       1.0000 0.81485  0.44234  0.46408  Biso   1.000  H
  H2       1.0000 0.64928  0.46408  0.02166  Biso   1.000  H
  H3       1.0000 0.62753  0.97822  0.44245  Biso   1.000  H
  H4       1.0000 0.37247  0.02181  0.55756  Biso   1.000  H
  H5       1.0000 0.35073  0.53594  0.97835  Biso   1.000  H
  H6       1.0000 0.18514  0.55768  0.53593  Biso   1.000  H
  O1       1.0000 0.91462  0.26642  0.64812  Biso   1.000  O
  O2       1.0000 0.92098  0.54680  0.19245  Biso   1.000  O
  O3       1.0000 0.92150  0.53955  0.38512  Biso   1.000  O
  O4       1.0000 0.72837  0.80718  0.35492  Biso   1.000  O
  O5       1.0000 0.73373  0.64803  0.38218  Biso   1.000  O
  O6       1.0000 0.64848  0.38240  0.73385  Biso   1.000  O
  O7       1.0000 0.62625  0.35487  0.54726  Biso   1.000  O
  O8       1.0000 0.61832  0.15471  0.53970  Biso   1.000  O
  O9       1.0000 0.53636  0.61429  0.15463  Biso   1.000  O
  O10      1.0000 0.46364  0.38573  0.84539  Biso   1.000  O
  O11      1.0000 0.38168  0.84532  0.46031  Biso   1.000  O
  O12      1.0000 0.37375  0.64516  0.45276  Biso   1.000  O
  O13      1.0000 0.35153  0.61762  0.26616  Biso   1.000  O
  O14      1.0000 0.26626  0.35200  0.61783  Biso   1.000  O
  O15      1.0000 0.27163  0.19284  0.64510  Biso   1.000  O
  O16      1.0000 0.07850  0.46048  0.61489  Biso   1.000  O
  O17      1.0000 0.07903  0.45323  0.80757  Biso   1.000  O
  O18      1.0000 0.08538  0.73360  0.35189  Biso   1.000  O
  Mg1      1.0000 0.87462  0.40792  0.67377  Biso   1.000  Mg
  Mg2      1.0000 0.79911  0.67328  0.26614  Biso   1.000  Mg
  Mg3      1.0000 0.53309  0.73379  0.40780  Biso   1.000  Mg
  Mg4      1.0000 0.46691  0.26623  0.59220  Biso   1.000  Mg
  Mg5      1.0000 0.20089  0.32674  0.73387  Biso   1.000  Mg
  Mg6      1.0000 0.12538  0.59210  0.32625  Biso   1.000  Mg
