# generated using pymatgen
data_Zn4H12C24O13
_symmetry_space_group_name_H-M   'P 1'
_cell_length_a   18.26598237
_cell_length_b   18.26598237
_cell_length_c   18.26598237
_cell_angle_alpha   60.00000000
_cell_angle_beta   60.00000000
_cell_angle_gamma   60.00000000
_symmetry_Int_Tables_number   1
_chemical_formula_structural   Zn4H12C24O13
_chemical_formula_sum   'Zn8 H24 C48 O26'
_cell_volume   4309.37318259
_cell_formula_units_Z   2
loop_
 _symmetry_equiv_pos_site_id
 _symmetry_equiv_pos_as_xyz
  1  'x, y, z'
loop_
 _atom_site_type_symbol
 _atom_site_label
 _atom_site_symmetry_multiplicity
 _atom_site_fract_x
 _atom_site_fract_y
 _atom_site_fract_z
 _atom_site_occupancy
  C  C1  1  0.61130000  0.88870000  0.88870000  1
  C  C1  1  0.88870000  0.61130000  0.61130000  1
  C  C1  1  0.88870000  0.88870000  0.61130000  1
  C  C1  1  0.61130000  0.61130000  0.88870000  1
  C  C1  1  0.88870000  0.61130000  0.88870000  1
  C  C1  1  0.61130000  0.88870000  0.61130000  1
  C  C1  1  0.38870000  0.11130000  0.11130000  1
  C  C1  1  0.11130000  0.38870000  0.38870000  1
  C  C1  1  0.38870000  0.11130000  0.38870000  1
  C  C1  1  0.11130000  0.38870000  0.11130000  1
  C  C1  1  0.38870000  0.38870000  0.11130000  1
  C  C1  1  0.11130000  0.11130000  0.38870000  1
  C  C2  1  0.55380000  0.94620000  0.94620000  1
  C  C2  1  0.94620000  0.55380000  0.55380000  1
  C  C2  1  0.94620000  0.94620000  0.55380000  1
  C  C2  1  0.55380000  0.55380000  0.94620000  1
  C  C2  1  0.94620000  0.55380000  0.94620000  1
  C  C2  1  0.55380000  0.94620000  0.55380000  1
  C  C2  1  0.44620000  0.05380000  0.05380000  1
  C  C2  1  0.05380000  0.44620000  0.44620000  1
  C  C2  1  0.44620000  0.05380000  0.44620000  1
  C  C2  1  0.05380000  0.44620000  0.05380000  1
  C  C2  1  0.44620000  0.44620000  0.05380000  1
  C  C2  1  0.05380000  0.05380000  0.44620000  1
  C  C3  1  0.52690000  0.90730000  0.03890000  1
  C  C3  1  0.52690000  0.03890000  0.90730000  1
  C  C3  1  0.03890000  0.52690000  0.52690000  1
  C  C3  1  0.90730000  0.52690000  0.52690000  1
  C  C3  1  0.90730000  0.03890000  0.52690000  1
  C  C3  1  0.03890000  0.90730000  0.52690000  1
  C  C3  1  0.52690000  0.52690000  0.03890000  1
  C  C3  1  0.52690000  0.52690000  0.90730000  1
  C  C3  1  0.03890000  0.52690000  0.90730000  1
  C  C3  1  0.90730000  0.52690000  0.03890000  1
  C  C3  1  0.52690000  0.03890000  0.52690000  1
  C  C3  1  0.52690000  0.90730000  0.52690000  1
  C  C3  1  0.47310000  0.09270000  0.96110000  1
  C  C3  1  0.47310000  0.96110000  0.09270000  1
  C  C3  1  0.09270000  0.47310000  0.47310000  1
  C  C3  1  0.96110000  0.47310000  0.47310000  1
  C  C3  1  0.47310000  0.96110000  0.47310000  1
  C  C3  1  0.47310000  0.09270000  0.47310000  1
  C  C3  1  0.09270000  0.47310000  0.96110000  1
  C  C3  1  0.96110000  0.47310000  0.09270000  1
  C  C3  1  0.47310000  0.47310000  0.09270000  1
  C  C3  1  0.47310000  0.47310000  0.96110000  1
  C  C3  1  0.09270000  0.96110000  0.47310000  1
  C  C3  1  0.96110000  0.09270000  0.47310000  1
  H  H1  1  0.54480000  0.84540000  0.06500000  1
  H  H1  1  0.54480000  0.06500000  0.84540000  1
  H  H1  1  0.06500000  0.54480000  0.54480000  1
  H  H1  1  0.84540000  0.54480000  0.54480000  1
  H  H1  1  0.84540000  0.06500000  0.54480000  1
  H  H1  1  0.06500000  0.84540000  0.54480000  1
  H  H1  1  0.54480000  0.54480000  0.06500000  1
  H  H1  1  0.54480000  0.54480000  0.84540000  1
  H  H1  1  0.06500000  0.54480000  0.84540000  1
  H  H1  1  0.84540000  0.54480000  0.06500000  1
  H  H1  1  0.54480000  0.06500000  0.54480000  1
  H  H1  1  0.54480000  0.84540000  0.54480000  1
  H  H1  1  0.45520000  0.15460000  0.93500000  1
  H  H1  1  0.45520000  0.93500000  0.15460000  1
  H  H1  1  0.15460000  0.45520000  0.45520000  1
  H  H1  1  0.93500000  0.45520000  0.45520000  1
  H  H1  1  0.45520000  0.93500000  0.45520000  1
  H  H1  1  0.45520000  0.15460000  0.45520000  1
  H  H1  1  0.15460000  0.45520000  0.93500000  1
  H  H1  1  0.93500000  0.45520000  0.15460000  1
  H  H1  1  0.45520000  0.45520000  0.15460000  1
  H  H1  1  0.45520000  0.45520000  0.93500000  1
  H  H1  1  0.15460000  0.93500000  0.45520000  1
  H  H1  1  0.93500000  0.15460000  0.45520000  1
  O  O1  1  0.75000000  0.75000000  0.75000000  1
  O  O1  1  0.25000000  0.25000000  0.25000000  1
  O  O2  1  0.63400000  0.80220000  0.92980000  1
  O  O2  1  0.63400000  0.92980000  0.80220000  1
  O  O2  1  0.92980000  0.63400000  0.63400000  1
  O  O2  1  0.80220000  0.63400000  0.63400000  1
  O  O2  1  0.80220000  0.92980000  0.63400000  1
  O  O2  1  0.92980000  0.80220000  0.63400000  1
  O  O2  1  0.63400000  0.63400000  0.92980000  1
  O  O2  1  0.63400000  0.63400000  0.80220000  1
  O  O2  1  0.92980000  0.63400000  0.80220000  1
  O  O2  1  0.80220000  0.63400000  0.92980000  1
  O  O2  1  0.63400000  0.92980000  0.63400000  1
  O  O2  1  0.63400000  0.80220000  0.63400000  1
  O  O2  1  0.36600000  0.19780000  0.07020000  1
  O  O2  1  0.36600000  0.07020000  0.19780000  1
  O  O2  1  0.19780000  0.36600000  0.36600000  1
  O  O2  1  0.07020000  0.36600000  0.36600000  1
  O  O2  1  0.36600000  0.07020000  0.36600000  1
  O  O2  1  0.36600000  0.19780000  0.36600000  1
  O  O2  1  0.19780000  0.36600000  0.07020000  1
  O  O2  1  0.07020000  0.36600000  0.19780000  1
  O  O2  1  0.36600000  0.36600000  0.19780000  1
  O  O2  1  0.36600000  0.36600000  0.07020000  1
  O  O2  1  0.19780000  0.07020000  0.36600000  1
  O  O2  1  0.07020000  0.19780000  0.36600000  1
  Zn  Zn1  1  0.70660000  0.70660000  0.88020000  1
  Zn  Zn1  1  0.70660000  0.88020000  0.70660000  1
  Zn  Zn1  1  0.88020000  0.70660000  0.70660000  1
  Zn  Zn1  1  0.70660000  0.70660000  0.70660000  1
  Zn  Zn1  1  0.29340000  0.29340000  0.11980000  1
  Zn  Zn1  1  0.29340000  0.11980000  0.29340000  1
  Zn  Zn1  1  0.29340000  0.29340000  0.29340000  1
  Zn  Zn1  1  0.11980000  0.29340000  0.29340000  1
