# generated using pymatgen
data_LuH14(C3O5)2
_symmetry_space_group_name_H-M   'P 1'
_cell_length_a   5.22410000
_cell_length_b   26.05550000
_cell_length_c   8.80020000
_cell_angle_alpha   90.00000000
_cell_angle_beta   97.38300000
_cell_angle_gamma   90.00000000
_symmetry_Int_Tables_number   1
_chemical_formula_structural   LuH14(C3O5)2
_chemical_formula_sum   'Lu4 H56 C24 O40'
_cell_volume   1187.92175564
_cell_formula_units_Z   4
loop_
 _symmetry_equiv_pos_site_id
 _symmetry_equiv_pos_as_xyz
  1  'x, y, z'
loop_
 _atom_site_type_symbol
 _atom_site_label
 _atom_site_symmetry_multiplicity
 _atom_site_fract_x
 _atom_site_fract_y
 _atom_site_fract_z
 _atom_site_occupancy
  Lu  Lu0  1  0.40348200  0.34083340  0.52143912  1
  Lu  Lu1  1  0.59651800  0.84083340  0.97856088  1
  Lu  Lu2  1  0.59651800  0.65916660  0.47856088  1
  Lu  Lu3  1  0.40348200  0.15916660  0.02143912  1
  O  O4  1  0.60004000  0.33354900  0.30762000  1
  O  O5  1  0.39996000  0.83354900  0.19238000  1
  O  O6  1  0.39996000  0.66645100  0.69238000  1
  O  O7  1  0.60004000  0.16645100  0.80762000  1
  O  O8  1  0.00414000  0.33613100  0.41033000  1
  O  O9  1  0.00000000  0.83613100  0.08967000  1
  O  O10  1  0.00000000  0.66386900  0.58967000  1
  O  O11  1  0.00414000  0.16386900  0.91033000  1
  C  C12  1  0.83505000  0.33151000  0.29543000  1
  C  C13  1  0.16495000  0.83151000  0.20457000  1
  C  C14  1  0.16495000  0.66849000  0.70457000  1
  C  C15  1  0.83505000  0.16849000  0.79543000  1
  C  C16  1  0.92366000  0.32403120  0.14173000  1
  C  C17  1  0.07634000  0.82403120  0.35827000  1
  C  C18  1  0.07634000  0.67596880  0.85827000  1
  C  C19  1  0.92366000  0.17596880  0.64173000  1
  H  H20  1  0.00570000  0.35581500  0.12040000  1
  H  H21  1  0.99430000  0.85581500  0.37960000  1
  H  H22  1  0.99430000  0.64418500  0.87960000  1
  H  H23  1  0.00570000  0.14418500  0.62040000  1
  H  H24  1  0.05690000  0.29841900  0.14950000  1
  H  H25  1  0.94310000  0.79841900  0.35050000  1
  H  H26  1  0.94310000  0.70158100  0.85050000  1
  H  H27  1  0.05690000  0.20158100  0.64950000  1
  C  C28  1  0.71007000  0.31015120  0.01593000  1
  C  C29  1  0.28993000  0.81015120  0.48407000  1
  C  C30  1  0.28993000  0.68984880  0.98407000  1
  C  C31  1  0.71007000  0.18984880  0.51593000  1
  H  H32  1  0.58680000  0.33531600  0.01350000  1
  H  H33  1  0.41320000  0.83531600  0.48650000  1
  H  H34  1  0.41320000  0.66468400  0.98650000  1
  H  H35  1  0.58680000  0.16468400  0.51350000  1
  H  H36  1  0.76990000  0.30571800  0.92050000  1
  H  H37  1  0.23010000  0.80571800  0.57950000  1
  H  H38  1  0.23010000  0.69428200  0.07950000  1
  H  H39  1  0.76990000  0.19428200  0.42050000  1
  C  C40  1  0.58685000  0.25861000  0.03303000  1
  C  C41  1  0.41315000  0.75861000  0.46697000  1
  C  C42  1  0.41315000  0.74139000  0.96697000  1
  C  C43  1  0.58685000  0.24139000  0.53303000  1
  O  O44  1  0.37314000  0.24838800  0.95388000  1
  O  O45  1  0.62686000  0.74838800  0.54612000  1
  O  O46  1  0.62686000  0.75161200  0.04612000  1
  O  O47  1  0.37314000  0.25161200  0.45388000  1
  O  O48  1  0.69774000  0.22414700  0.11982000  1
  O  O49  1  0.30226000  0.72414700  0.38018000  1
  O  O50  1  0.30226000  0.77585300  0.88018000  1
  O  O51  1  0.69774000  0.27585300  0.61982000  1
  O  O52  1  0.18874000  0.41599800  0.60993000  1
  O  O53  1  0.81126000  0.91599800  0.89007000  1
  O  O54  1  0.81126000  0.58400200  0.39007000  1
  O  O55  1  0.18874000  0.08400200  0.10993000  1
  O  O56  1  0.35785000  0.42179900  0.39633000  1
  O  O57  1  0.64215000  0.92179900  0.10367000  1
  O  O58  1  0.64215000  0.57820100  0.60367000  1
  O  O59  1  0.35785000  0.07820100  0.89633000  1
  C  C60  1  0.21976000  0.44039120  0.48954000  1
  C  C61  1  0.78024000  0.94039120  0.01046000  1
  C  C62  1  0.78024000  0.55960880  0.51046000  1
  C  C63  1  0.21976000  0.05960880  0.98954000  1
  C  C64  1  0.09031000  0.49114170  0.45086000  1
  C  C65  1  0.90969000  0.99114170  0.04914000  1
  C  C66  1  0.90969000  0.50885830  0.54914000  1
  C  C67  1  0.09031000  0.00885830  0.95086000  1
  H  H68  1  0.22380000  0.51700000  0.45000000  1
  H  H69  1  0.77620000  0.01700000  0.05000000  1
  H  H70  1  0.77620000  0.48300000  0.55000000  1
  H  H71  1  0.22380000  0.98300000  0.95000000  1
  H  H72  1  0.00050000  0.48890000  0.34740000  1
  H  H73  1  0.00000000  0.98890000  0.15260000  1
  H  H74  1  0.00000000  0.51110000  0.65260000  1
  H  H75  1  0.00050000  0.01110000  0.84740000  1
