# generated using pymatgen
data_CoHC4O3
_symmetry_space_group_name_H-M   'P 1'
_cell_length_a   6.71921000
_cell_length_b   15.24021869
_cell_length_c   15.24021869
_cell_angle_alpha   117.87882398
_cell_angle_beta   98.45092468
_cell_angle_gamma   98.45092468
_symmetry_Int_Tables_number   1
_chemical_formula_structural   CoHC4O3
_chemical_formula_sum   'Co6 H6 C24 O18'
_cell_volume   1322.35670167
_cell_formula_units_Z   6
loop_
 _symmetry_equiv_pos_site_id
 _symmetry_equiv_pos_as_xyz
  1  'x, y, z'
loop_
 _atom_site_type_symbol
 _atom_site_label
 _atom_site_symmetry_multiplicity
 _atom_site_fract_x
 _atom_site_fract_y
 _atom_site_fract_z
 _atom_site_occupancy
  C  C54  1  0.14734100  0.82462000  0.38727000  1.0
  C  C55  1  0.76007100  0.61273000  0.43735000  1.0
  C  C56  1  0.32272100  0.56265000  0.17538000  1.0
  C  C63  1  0.85265900  0.17538000  0.61273000  1.0
  C  C64  1  0.23992900  0.38727000  0.56265000  1.0
  C  C65  1  0.67727900  0.43735000  0.82462000  1.0
  C  C72  1  0.33354100  0.91272000  0.44707000  1.0
  C  C73  1  0.88647100  0.55293000  0.46565000  1.0
  C  C74  1  0.42082100  0.53435000  0.08728000  1.0
  C  C81  1  0.66645900  0.08728000  0.55293000  1.0
  C  C82  1  0.11352900  0.44707000  0.53435000  1.0
  C  C83  1  0.57917900  0.46565000  0.91272000  1.0
  C  C90  1  0.53824200  0.90082000  0.46707000  1.0
  C  C91  1  0.07117200  0.53293000  0.43375000  1.0
  C  C92  1  0.63742200  0.56625000  0.09918000  1.0
  C  C99  1  0.46175800  0.09918000  0.53293000  1.0
  C  C100  1  0.92882800  0.46707000  0.56625000  1.0
  C  C101  1  0.36257800  0.43375000  0.90082000  1.0
  C  C108  1  0.30234200  0.01042000  0.48137000  1.0
  C  C109  1  0.82097200  0.51863000  0.52905000  1.0
  C  C110  1  0.29192200  0.47095000  0.98958000  1.0
  C  C117  1  0.69765800  0.98958000  0.51863000  1.0
  C  C118  1  0.17902800  0.48137000  0.47095000  1.0
  C  C119  1  0.70807800  0.52905000  0.01042000  1.0
  Co  Co36  1  0.96284660  0.57902300  0.26484200  1.0
  Co  Co37  1  0.69800460  0.73515800  0.31418100  1.0
  Co  Co38  1  0.38382360  0.68581900  0.42097700  1.0
  Co  Co45  1  0.03715340  0.42097700  0.73515800  1.0
  Co  Co46  1  0.30199540  0.26484200  0.68581900  1.0
  Co  Co47  1  0.61617640  0.31418100  0.57902300  1.0
  H  H126  1  0.16670000  0.01660000  0.46880000  1.0
  H  H127  1  0.69790000  0.53120000  0.54780000  1.0
  H  H128  1  0.15010000  0.45220000  0.98340000  1.0
  H  H135  1  0.83493333  0.98340000  0.53120000  1.0
  H  H136  1  0.30373333  0.46880000  0.45220000  1.0
  H  H137  1  0.85153333  0.54780000  0.01660000  1.0
  O  O144  1  0.16780000  0.73371000  0.35425000  1.0
  O  O145  1  0.81355000  0.64575000  0.37946000  1.0
  O  O146  1  0.43409000  0.62054000  0.26629000  1.0
  O  O153  1  0.83220000  0.26629000  0.64575000  1.0
  O  O154  1  0.18645000  0.35425000  0.62054000  1.0
  O  O155  1  0.56591000  0.37946000  0.73371000  1.0
  O  O162  1  0.97184000  0.84230000  0.36776000  1.0
  O  O163  1  0.60408000  0.63224000  0.47454000  1.0
  O  O164  1  0.12954000  0.52546000  0.15770000  1.0
  O  O171  1  0.02816000  0.15770000  0.63224000  1.0
  O  O172  1  0.39592000  0.36776000  0.52546000  1.0
  O  O173  1  0.87046000  0.47454000  0.84230000  1.0
  O  O180  1  0.58810000  0.81081000  0.44095000  1.0
  O  O181  1  0.14715000  0.55905000  0.36986000  1.0
  O  O182  1  0.77729000  0.63014000  0.18919000  1.0
  O  O189  1  0.41190000  0.18919000  0.55905000  1.0
  O  O190  1  0.85285000  0.44095000  0.63014000  1.0
  O  O191  1  0.22271000  0.36986000  0.81081000  1.0
