# generated using pymatgen
data_CoH3C4O9
_symmetry_space_group_name_H-M   'P 1'
_cell_length_a   26.11021900
_cell_length_b   26.11021900
_cell_length_c   6.71921000
_cell_angle_alpha   90.00000000
_cell_angle_beta   90.00000000
_cell_angle_gamma   120.00000000
_symmetry_Int_Tables_number   1
_chemical_formula_structural   CoH3C4O9
_chemical_formula_sum   'Co18 H54 C72 O162'
_cell_volume   3967.07010502
_cell_formula_units_Z   18
loop_
 _symmetry_equiv_pos_site_id
 _symmetry_equiv_pos_as_xyz
  1  'x, y, z'
loop_
 _atom_site_type_symbol
 _atom_site_label
 _atom_site_symmetry_multiplicity
 _atom_site_fract_x
 _atom_site_fract_y
 _atom_site_fract_z
 _atom_site_occupancy
  Co  Co36  1  0.94795500  0.31688700  0.01489160  1
  Co  Co37  1  0.68311300  0.63106800  0.01489160  1
  Co  Co38  1  0.36893200  0.05204500  0.01489160  1
  Co  Co39  1  0.61462167  0.65022033  0.34822493  1
  Co  Co40  1  0.34977967  0.96440133  0.34822493  1
  Co  Co41  1  0.03559867  0.38537833  0.34822493  1
  Co  Co42  1  0.28128833  0.98355367  0.68155827  1
  Co  Co43  1  0.01644633  0.29773467  0.68155827  1
  Co  Co44  1  0.70226533  0.71871167  0.68155827  1
  Co  Co45  1  0.05204500  0.68311300  0.98510840  1
  Co  Co46  1  0.31688700  0.36893200  0.98510840  1
  Co  Co47  1  0.63106800  0.94795500  0.98510840  1
  Co  Co48  1  0.38537833  0.34977967  0.65177507  1
  Co  Co49  1  0.65022033  0.03559867  0.65177507  1
  Co  Co50  1  0.96440133  0.61462167  0.65177507  1
  Co  Co51  1  0.71871167  0.01644633  0.31844173  1
  Co  Co52  1  0.98355367  0.70226533  0.31844173  1
  Co  Co53  1  0.29773467  0.28128833  0.31844173  1
  C  C54  1  0.07063000  0.31664000  0.07671100  1
  C  C55  1  0.68336000  0.75399000  0.07671100  1
  C  C56  1  0.24601000  0.92937000  0.07671100  1
  C  C57  1  0.73729667  0.64997333  0.41004433  1
  C  C58  1  0.35002667  0.08732333  0.41004433  1
  C  C59  1  0.91267667  0.26270333  0.41004433  1
  C  C60  1  0.40396333  0.98330667  0.74337767  1
  C  C61  1  0.01669333  0.42065667  0.74337767  1
  C  C62  1  0.57934333  0.59603667  0.74337767  1
  C  C63  1  0.92937000  0.68336000  0.92328900  1
  C  C64  1  0.31664000  0.24601000  0.92328900  1
  C  C65  1  0.75399000  0.07063000  0.92328900  1
  C  C66  1  0.26270333  0.35002667  0.58995567  1
  C  C67  1  0.64997333  0.91267667  0.58995567  1
  C  C68  1  0.08732333  0.73729667  0.58995567  1
  C  C69  1  0.59603667  0.01669333  0.25662233  1
  C  C70  1  0.98330667  0.57934333  0.25662233  1
  C  C71  1  0.42065667  0.40396333  0.25662233  1
  C  C72  1  0.11993000  0.32714000  0.21361100  1
  C  C73  1  0.67286000  0.79279000  0.21361100  1
  C  C74  1  0.20721000  0.88007000  0.21361100  1
  C  C75  1  0.78659667  0.66047333  0.54694433  1
  C  C76  1  0.33952667  0.12612333  0.54694433  1
  C  C77  1  0.87387667  0.21340333  0.54694433  1
  C  C78  1  0.45326333  0.99380667  0.88027767  1
  C  C79  1  0.00619333  0.45945667  0.88027767  1
  C  C80  1  0.54054333  0.54673667  0.88027767  1
  C  C81  1  0.88007000  0.67286000  0.78638900  1
  C  C82  1  0.32714000  0.20721000  0.78638900  1
  C  C83  1  0.79279000  0.11993000  0.78638900  1
  C  C84  1  0.21340333  0.33952667  0.45305567  1
  C  C85  1  0.66047333  0.87387667  0.45305567  1
  C  C86  1  0.12612333  0.78659667  0.45305567  1
  C  C87  1  0.54673667  0.00619333  0.11972233  1
  C  C88  1  0.99380667  0.54054333  0.11972233  1
  C  C89  1  0.45945667  0.45326333  0.11972233  1
  C  C90  1  0.12263000  0.34444000  0.41561200  1
  C  C91  1  0.65556000  0.77819000  0.41561200  1
  C  C92  1  0.22181000  0.87737000  0.41561200  1
  C  C93  1  0.78929667  0.67777333  0.74894533  1
  C  C94  1  0.32222667  0.11152333  0.74894533  1
  C  C95  1  0.88847667  0.21070333  0.74894533  1
  C  C96  1  0.45596333  0.01110667  0.08227867  1
  C  C97  1  0.98889333  0.44485667  0.08227867  1
  C  C98  1  0.55514333  0.54403667  0.08227867  1
  C  C99  1  0.87737000  0.65556000  0.58438800  1
  C  C100  1  0.34444000  0.22181000  0.58438800  1
  C  C101  1  0.77819000  0.12263000  0.58438800  1
  C  C102  1  0.21070333  0.32222667  0.25105467  1
  C  C103  1  0.67777333  0.88847667  0.25105467  1
  C  C104  1  0.11152333  0.78929667  0.25105467  1
  C  C105  1  0.54403667  0.98889333  0.91772133  1
  C  C106  1  0.01110667  0.55514333  0.91772133  1
  C  C107  1  0.44485667  0.45596333  0.91772133  1
  C  C108  1  0.16393000  0.31744000  0.13841200  1
  C  C109  1  0.68256000  0.84649000  0.13841200  1
  C  C110  1  0.15351000  0.83607000  0.13841200  1
  C  C111  1  0.83059667  0.65077333  0.47174533  1
  C  C112  1  0.34922667  0.17982333  0.47174533  1
  C  C113  1  0.82017667  0.16940333  0.47174533  1
  C  C114  1  0.49726333  0.98410667  0.80507867  1
  C  C115  1  0.01589333  0.51315667  0.80507867  1
  C  C116  1  0.48684333  0.50273667  0.80507867  1
  C  C117  1  0.83607000  0.68256000  0.86158800  1
  C  C118  1  0.31744000  0.15351000  0.86158800  1
  C  C119  1  0.84649000  0.16393000  0.86158800  1
  C  C120  1  0.16940333  0.34922667  0.52825467  1
  C  C121  1  0.65077333  0.82017667  0.52825467  1
  C  C122  1  0.17982333  0.83059667  0.52825467  1
  C  C123  1  0.50273667  0.01589333  0.19492133  1
  C  C124  1  0.98410667  0.48684333  0.19492133  1
  C  C125  1  0.51315667  0.49726333  0.19492133  1
  H  H126  1  0.16180000  0.30700000  0.00490000  1
  H  H127  1  0.69300000  0.85480000  0.00490000  1
  H  H128  1  0.14520000  0.83820000  0.00490000  1
  H  H129  1  0.82846667  0.64033333  0.33823333  1
  H  H130  1  0.35966667  0.18813333  0.33823333  1
  H  H131  1  0.81186667  0.17153333  0.33823333  1
  H  H132  1  0.49513333  0.97366667  0.67156667  1
  H  H133  1  0.02633333  0.52146667  0.67156667  1
  H  H134  1  0.47853333  0.50486667  0.67156667  1
  H  H135  1  0.83820000  0.69300000  0.00000000  1
  H  H136  1  0.30700000  0.14520000  0.00000000  1
  H  H137  1  0.85480000  0.16180000  0.00000000  1
  H  H138  1  0.17153333  0.35966667  0.66176667  1
  H  H139  1  0.64033333  0.81186667  0.66176667  1
  H  H140  1  0.18813333  0.82846667  0.66176667  1
  H  H141  1  0.50486667  0.02633333  0.32843333  1
  H  H142  1  0.97366667  0.47853333  0.32843333  1
  H  H143  1  0.52146667  0.49513333  0.32843333  1
  O  O144  1  0.02932000  0.32493000  0.13848000  1
  O  O145  1  0.67507000  0.70439000  0.13848000  1
  O  O146  1  0.29561000  0.97068000  0.13848000  1
  O  O147  1  0.69598667  0.65826333  0.47181333  1
  O  O148  1  0.34173667  0.03772333  0.47181333  1
  O  O149  1  0.96227667  0.30401333  0.47181333  1
  O  O150  1  0.36265333  0.99159667  0.80514667  1
  O  O151  1  0.00840333  0.37105667  0.80514667  1
  O  O152  1  0.62894333  0.63734667  0.80514667  1
  O  O153  1  0.97068000  0.67507000  0.86152000  1
  O  O154  1  0.32493000  0.29561000  0.86152000  1
  O  O155  1  0.70439000  0.02932000  0.86152000  1
  O  O156  1  0.30401333  0.34173667  0.52818667  1
  O  O157  1  0.65826333  0.96227667  0.52818667  1
  O  O158  1  0.03772333  0.69598667  0.52818667  1
  O  O159  1  0.63734667  0.00840333  0.19485333  1
  O  O160  1  0.99159667  0.62894333  0.19485333  1
  O  O161  1  0.37105667  0.36265333  0.19485333  1
  O  O162  1  0.07002000  0.29774000  0.90182000  1
  O  O163  1  0.70226000  0.77228000  0.90182000  1
  O  O164  1  0.22772000  0.92998000  0.90182000  1
  O  O165  1  0.73668667  0.63107333  0.23515333  1
  O  O166  1  0.36892667  0.10561333  0.23515333  1
  O  O167  1  0.89438667  0.26331333  0.23515333  1
  O  O168  1  0.40335333  0.96440667  0.56848667  1
  O  O169  1  0.03559333  0.43894667  0.56848667  1
  O  O170  1  0.56105333  0.59664667  0.56848667  1
  O  O171  1  0.92998000  0.70226000  0.09818000  1
  O  O172  1  0.29774000  0.22772000  0.09818000  1
  O  O173  1  0.77228000  0.07002000  0.09818000  1
  O  O174  1  0.26331333  0.36892667  0.76484667  1
  O  O175  1  0.63107333  0.89438667  0.76484667  1
  O  O176  1  0.10561333  0.73668667  0.76484667  1
  O  O177  1  0.59664667  0.03559333  0.43151333  1
  O  O178  1  0.96440667  0.56105333  0.43151333  1
  O  O179  1  0.43894667  0.40335333  0.43151333  1
  O  O180  1  0.08392000  0.35703000  0.50418000  1
  O  O181  1  0.64297000  0.72689000  0.50418000  1
  O  O182  1  0.27311000  0.91608000  0.50418000  1
  O  O183  1  0.75058667  0.69036333  0.83751333  1
  O  O184  1  0.30963667  0.06022333  0.83751333  1
  O  O185  1  0.93977667  0.24941333  0.83751333  1
  O  O186  1  0.41725333  0.02369667  0.17084667  1
  O  O187  1  0.97630333  0.39355667  0.17084667  1
  O  O188  1  0.60644333  0.58274667  0.17084667  1
  O  O189  1  0.91608000  0.64297000  0.49582000  1
  O  O190  1  0.35703000  0.27311000  0.49582000  1
  O  O191  1  0.72689000  0.08392000  0.49582000  1
  O  O192  1  0.24941333  0.30963667  0.16248667  1
  O  O193  1  0.69036333  0.93977667  0.16248667  1
  O  O194  1  0.06022333  0.75058667  0.16248667  1
  O  O195  1  0.58274667  0.97630333  0.82915333  1
  O  O196  1  0.02369667  0.60644333  0.82915333  1
  O  O197  1  0.39355667  0.41725333  0.82915333  1
