# generated using pymatgen
data_Mg3H46C48N4O17
_symmetry_space_group_name_H-M   'P 1'
_cell_length_a   13.41912000
_cell_length_b   18.06692000
_cell_length_c   20.97463000
_cell_angle_alpha   90.00000000
_cell_angle_beta   99.65910000
_cell_angle_gamma   90.00000000
_symmetry_Int_Tables_number   1
_chemical_formula_structural   Mg3H46C48N4O17
_chemical_formula_sum   'Mg12 H184 C192 N16 O68'
_cell_volume   5013.04530805
_cell_formula_units_Z   4
loop_
 _symmetry_equiv_pos_site_id
 _symmetry_equiv_pos_as_xyz
  1  'x, y, z'
loop_
 _atom_site_type_symbol
 _atom_site_label
 _atom_site_symmetry_multiplicity
 _atom_site_fract_x
 _atom_site_fract_y
 _atom_site_fract_z
 _atom_site_occupancy
  Mg  Mg0  1  0.00000000  0.25246500  0.25000000  1
  Mg  Mg1  1  0.50000000  0.75246500  0.25000000  1
  Mg  Mg2  1  0.00000000  0.74753500  0.75000000  1
  Mg  Mg3  1  0.50000000  0.24753500  0.75000000  1
  Mg  Mg4  1  0.24024700  0.24100400  0.19118300  1
  Mg  Mg5  1  0.75975300  0.24100400  0.30881700  1
  Mg  Mg6  1  0.74024700  0.74100400  0.19118300  1
  Mg  Mg7  1  0.25975300  0.74100400  0.30881700  1
  Mg  Mg8  1  0.75975300  0.75899600  0.80881700  1
  Mg  Mg9  1  0.24024700  0.75899600  0.69118300  1
  Mg  Mg10  1  0.25975300  0.25899600  0.80881700  1
  Mg  Mg11  1  0.74024700  0.25899600  0.69118300  1
  O  O12  1  0.00251190  0.17118130  0.17868100  1
  O  O13  1  0.00000000  0.17118130  0.32131900  1
  O  O14  1  0.50251190  0.67118130  0.17868100  1
  O  O15  1  0.49748810  0.67118130  0.32131900  1
  O  O16  1  0.00000000  0.82881870  0.82131900  1
  O  O17  1  0.00251190  0.82881870  0.67868100  1
  O  O18  1  0.49748810  0.32881870  0.82131900  1
  O  O19  1  0.50251190  0.32881870  0.67868100  1
  O  O20  1  0.15804180  0.15180140  0.15879120  1
  O  O21  1  0.84195820  0.15180140  0.34120880  1
  O  O22  1  0.65804180  0.65180140  0.15879120  1
  O  O23  1  0.34195820  0.65180140  0.34120880  1
  O  O24  1  0.84195820  0.84819860  0.84120880  1
  O  O25  1  0.15804180  0.84819860  0.65879120  1
  O  O26  1  0.34195820  0.34819860  0.84120880  1
  O  O27  1  0.65804180  0.34819860  0.65879120  1
  O  O28  1  0.01722000  0.33621120  0.18339110  1
  O  O29  1  0.98278000  0.33621120  0.31660890  1
  O  O30  1  0.51722000  0.83621120  0.18339110  1
  O  O31  1  0.48278000  0.83621120  0.31660890  1
  O  O32  1  0.98278000  0.66378880  0.81660890  1
  O  O33  1  0.01722000  0.66378880  0.68339110  1
  O  O34  1  0.48278000  0.16378880  0.81660890  1
  O  O35  1  0.51722000  0.16378880  0.68339110  1
  O  O36  1  0.14262000  0.31012150  0.13015120  1
  O  O37  1  0.85738000  0.31012150  0.36984880  1
  O  O38  1  0.64262000  0.81012150  0.13015120  1
  O  O39  1  0.35738000  0.81012150  0.36984880  1
  O  O40  1  0.85738000  0.68987850  0.86984880  1
  O  O41  1  0.14262000  0.68987850  0.63015120  1
  O  O42  1  0.35738000  0.18987850  0.86984880  1
  O  O43  1  0.64262000  0.18987850  0.63015120  1
  O  O60  1  0.30483180  0.19741130  0.28278110  1
  O  O61  1  0.69516820  0.19741130  0.21721890  1
  O  O62  1  0.80483180  0.69741130  0.28278110  1
  O  O63  1  0.19516820  0.69741130  0.21721890  1
  O  O64  1  0.69516820  0.80258870  0.71721890  1
  O  O65  1  0.30483180  0.80258870  0.78278110  1
  O  O66  1  0.19516820  0.30258870  0.71721890  1
  O  O67  1  0.80483180  0.30258870  0.78278110  1
  O  O68  1  0.16002180  0.25508100  0.27671000  1
  O  O69  1  0.83997820  0.25508100  0.22329000  1
  O  O70  1  0.66002180  0.75508100  0.27671000  1
  O  O71  1  0.33997820  0.75508100  0.22329000  1
  O  O72  1  0.83997820  0.74491900  0.72329000  1
  O  O73  1  0.16002180  0.74491900  0.77671000  1
  O  O74  1  0.33997820  0.24491900  0.72329000  1
  O  O75  1  0.66002180  0.24491900  0.77671000  1
  C  C76  1  0.06382000  0.14134160  0.14943130  1
  C  C77  1  0.93618000  0.14134160  0.35056870  1
  C  C78  1  0.56382000  0.64134160  0.14943130  1
  C  C79  1  0.43618000  0.64134160  0.35056870  1
  C  C80  1  0.93618000  0.85865840  0.85056870  1
  C  C81  1  0.06382000  0.85865840  0.64943130  1
  C  C82  1  0.43618000  0.35865840  0.85056870  1
  C  C83  1  0.56382000  0.35865840  0.64943130  1
  C  C84  1  0.02452000  0.08897160  0.09449140  1
  C  C85  1  0.97548000  0.08897160  0.40550860  1
  C  C86  1  0.52452000  0.58897160  0.09449140  1
  C  C87  1  0.47548000  0.58897160  0.40550860  1
  C  C88  1  0.97548000  0.91102840  0.90550860  1
  C  C89  1  0.02452000  0.91102840  0.59449140  1
  C  C90  1  0.47548000  0.41102840  0.90550860  1
  C  C91  1  0.52452000  0.41102840  0.59449140  1
  C  C92  1  0.91828000  0.08159180  0.07328170  1
  C  C93  1  0.08172000  0.08159180  0.42671830  1
  C  C94  1  0.41828000  0.58159180  0.07328170  1
  C  C95  1  0.58172000  0.58159180  0.42671830  1
  C  C96  1  0.08172000  0.91840820  0.92671830  1
  C  C97  1  0.91828000  0.91840820  0.57328170  1
  C  C98  1  0.58172000  0.41840820  0.92671830  1
  C  C99  1  0.41828000  0.41840820  0.57328170  1
  H  H100  1  0.87380000  0.10770000  0.09440000  1
  H  H101  1  0.12620000  0.10770000  0.40560000  1
  H  H102  1  0.37380000  0.60770000  0.09440000  1
  H  H103  1  0.62620000  0.60770000  0.40560000  1
  H  H104  1  0.12620000  0.89230000  0.90560000  1
  H  H105  1  0.87380000  0.89230000  0.59440000  1
  H  H106  1  0.62620000  0.39230000  0.90560000  1
  H  H107  1  0.37380000  0.39230000  0.59440000  1
  C  C108  1  0.08932000  0.04941160  0.06321140  1
  C  C109  1  0.91068000  0.04941160  0.43678860  1
  C  C110  1  0.58932000  0.54941160  0.06321140  1
  C  C111  1  0.41068000  0.54941160  0.43678860  1
  C  C112  1  0.91068000  0.95058840  0.93678860  1
  C  C113  1  0.08932000  0.95058840  0.56321140  1
  C  C114  1  0.41068000  0.45058840  0.93678860  1
  C  C115  1  0.58932000  0.45058840  0.56321140  1
  H  H116  1  0.15870000  0.05330000  0.07710000  1
  H  H117  1  0.84130000  0.05330000  0.42290000  1
  H  H118  1  0.65870000  0.55330000  0.07710000  1
  H  H119  1  0.34130000  0.55330000  0.42290000  1
  H  H120  1  0.84130000  0.94670000  0.92290000  1
  H  H121  1  0.15870000  0.94670000  0.57710000  1
  H  H122  1  0.34130000  0.44670000  0.92290000  1
  H  H123  1  0.65870000  0.44670000  0.57710000  1
  C  C124  1  0.05252000  0.00316170  0.01062140  1
  C  C125  1  0.94748000  0.00316170  0.48937860  1
  C  C126  1  0.55252000  0.50316170  0.01062140  1
  C  C127  1  0.44748000  0.50316170  0.48937860  1
  C  C128  1  0.94748000  0.00000000  0.98937860  1
  C  C129  1  0.05252000  0.00000000  0.51062140  1
  C  C130  1  0.44748000  0.49683830  0.98937860  1
  C  C131  1  0.55252000  0.49683830  0.51062140  1
  C  C132  1  0.88108000  0.03702000  0.02275180  1
  C  C133  1  0.11892000  0.03702000  0.47724820  1
  C  C134  1  0.38108000  0.53702000  0.02275180  1
  C  C135  1  0.61892000  0.53702000  0.47724820  1
  C  C136  1  0.11892000  0.96298000  0.97724820  1
  C  C137  1  0.88108000  0.96298000  0.52275180  1
  C  C138  1  0.61892000  0.46298000  0.97724820  1
  C  C139  1  0.38108000  0.46298000  0.52275180  1
  H  H140  1  0.81160000  0.03280000  0.00990000  1
  H  H141  1  0.18840000  0.03280000  0.49010000  1
  H  H142  1  0.31160000  0.53280000  0.00990000  1
  H  H143  1  0.68840000  0.53280000  0.49010000  1
  H  H144  1  0.18840000  0.96720000  0.99010000  1
  H  H145  1  0.81160000  0.96720000  0.50990000  1
  H  H146  1  0.68840000  0.46720000  0.99010000  1
  H  H147  1  0.31160000  0.46720000  0.50990000  1
  C  C148  1  0.06903000  0.34676180  0.14006150  1
  C  C149  1  0.93097000  0.34676180  0.35993850  1
  C  C150  1  0.56903000  0.84676180  0.14006150  1
  C  C151  1  0.43097000  0.84676180  0.35993850  1
  C  C152  1  0.93097000  0.65323820  0.85993850  1
  C  C153  1  0.06903000  0.65323820  0.64006150  1
  C  C154  1  0.43097000  0.15323820  0.85993850  1
  C  C155  1  0.56903000  0.15323820  0.64006150  1
  C  C156  1  0.03673000  0.41186170  0.09482160  1
  C  C157  1  0.96327000  0.41186170  0.40517840  1
  C  C158  1  0.53673000  0.91186170  0.09482160  1
  C  C159  1  0.46327000  0.91186170  0.40517840  1
  C  C160  1  0.96327000  0.58813830  0.90517840  1
  C  C161  1  0.03673000  0.58813830  0.59482160  1
  C  C162  1  0.46327000  0.08813830  0.90517840  1
  C  C163  1  0.53673000  0.08813830  0.59482160  1
  C  C164  1  0.96377000  0.46312000  0.10972160  1
  C  C165  1  0.03623000  0.46312000  0.39027840  1
  C  C166  1  0.46377000  0.96312000  0.10972160  1
  C  C167  1  0.53623000  0.96312000  0.39027840  1
  C  C168  1  0.03623000  0.53688000  0.89027840  1
  C  C169  1  0.96377000  0.53688000  0.60972160  1
  C  C170  1  0.53623000  0.03688000  0.89027840  1
  C  C171  1  0.46377000  0.03688000  0.60972160  1
  H  H172  1  0.93980000  0.45920000  0.14870000  1
  H  H173  1  0.06020000  0.45920000  0.35130000  1
  H  H174  1  0.43980000  0.95920000  0.14870000  1
  H  H175  1  0.56020000  0.95920000  0.35130000  1
  H  H176  1  0.06020000  0.54080000  0.85130000  1
  H  H177  1  0.93980000  0.54080000  0.64870000  1
  H  H178  1  0.56020000  0.04080000  0.85130000  1
  H  H179  1  0.43980000  0.04080000  0.64870000  1
  C  C180  1  0.07283000  0.41852000  0.03784170  1
  C  C181  1  0.92717000  0.41852000  0.46215830  1
  C  C182  1  0.57283000  0.91852000  0.03784170  1
  C  C183  1  0.42717000  0.91852000  0.46215830  1
  C  C184  1  0.92717000  0.58148000  0.96215830  1
  C  C185  1  0.07283000  0.58148000  0.53784170  1
  C  C186  1  0.42717000  0.08148000  0.96215830  1
  C  C187  1  0.57283000  0.08148000  0.53784170  1
  H  H188  1  0.12170000  0.38550000  0.02860000  1
  H  H189  1  0.87830000  0.38550000  0.47140000  1
  H  H190  1  0.62170000  0.88550000  0.02860000  1
  H  H191  1  0.37830000  0.88550000  0.47140000  1
  H  H192  1  0.87830000  0.61450000  0.97140000  1
  H  H193  1  0.12170000  0.61450000  0.52860000  1
  H  H194  1  0.37830000  0.11450000  0.97140000  1
  H  H195  1  0.62170000  0.11450000  0.52860000  1
  C  C196  1  0.03682000  0.47490180  0.99234840  1
  C  C197  1  0.96318000  0.47490180  0.50765160  1
  C  C198  1  0.53682000  0.97490180  0.99234840  1
  C  C199  1  0.46318000  0.97490180  0.50765160  1
  C  C200  1  0.96318000  0.52509820  0.00765160  1
  C  C201  1  0.03682000  0.52509820  0.49234840  1
  C  C202  1  0.46318000  0.02509820  0.00765160  1
  C  C203  1  0.53682000  0.02509820  0.49234840  1
  C  C204  1  0.92867000  0.51772000  0.06759180  1
  C  C205  1  0.07133000  0.51772000  0.43240820  1
  C  C206  1  0.42867000  0.01772000  0.06759180  1
  C  C207  1  0.57133000  0.01772000  0.43240820  1
  C  C208  1  0.07133000  0.48228000  0.93240820  1
  C  C209  1  0.92867000  0.48228000  0.56759180  1
  C  C210  1  0.57133000  0.98228000  0.93240820  1
  C  C211  1  0.42867000  0.98228000  0.56759180  1
  H  H212  1  0.88120000  0.55100000  0.07820000  1
  H  H213  1  0.11880000  0.55100000  0.42180000  1
  H  H214  1  0.38120000  0.05100000  0.07820000  1
  H  H215  1  0.61880000  0.05100000  0.42180000  1
  H  H216  1  0.11880000  0.44900000  0.92180000  1
  H  H217  1  0.88120000  0.44900000  0.57820000  1
  H  H218  1  0.61880000  0.94900000  0.92180000  1
  H  H219  1  0.38120000  0.94900000  0.57820000  1
  C  C308  1  0.23592000  0.22434150  0.30973130  1
  C  C309  1  0.76408000  0.22434150  0.19026870  1
  C  C310  1  0.73592000  0.72434150  0.30973130  1
  C  C311  1  0.26408000  0.72434150  0.19026870  1
  C  C312  1  0.76408000  0.77565850  0.69026870  1
  C  C313  1  0.23592000  0.77565850  0.80973130  1
  C  C314  1  0.26408000  0.27565850  0.69026870  1
  C  C315  1  0.73592000  0.27565850  0.80973130  1
  C  C316  1  0.24882000  0.22296170  0.38201130  1
  C  C317  1  0.75118000  0.22296170  0.11798870  1
  C  C318  1  0.74882000  0.72296170  0.38201130  1
  C  C319  1  0.25118000  0.72296170  0.11798870  1
  C  C320  1  0.75118000  0.77703830  0.61798870  1
  C  C321  1  0.24882000  0.77703830  0.88201130  1
  C  C322  1  0.25118000  0.27703830  0.61798870  1
  C  C323  1  0.74882000  0.27703830  0.88201130  1
  C  C324  1  0.32063000  0.17393190  0.41682150  1
  C  C325  1  0.67937000  0.17393190  0.08317850  1
  C  C326  1  0.82063000  0.67393190  0.41682150  1
  C  C327  1  0.17937000  0.67393190  0.08317850  1
  C  C328  1  0.67937000  0.82606810  0.58317850  1
  C  C329  1  0.32063000  0.82606810  0.91682150  1
  C  C330  1  0.17937000  0.32606810  0.58317850  1
  C  C331  1  0.82063000  0.32606810  0.91682150  1
  H  H332  1  0.35630000  0.14130000  0.39480000  1
  H  H333  1  0.64370000  0.14130000  0.10520000  1
  H  H334  1  0.85630000  0.64130000  0.39480000  1
  H  H335  1  0.14370000  0.64130000  0.10520000  1
  H  H336  1  0.64370000  0.85870000  0.60520000  1
  H  H337  1  0.35630000  0.85870000  0.89480000  1
  H  H338  1  0.14370000  0.35870000  0.60520000  1
  H  H339  1  0.85630000  0.35870000  0.89480000  1
  C  C340  1  0.33713000  0.17493190  0.48254150  1
  C  C341  1  0.66287000  0.17493190  0.01745850  1
  C  C342  1  0.83713000  0.67493190  0.48254150  1
  C  C343  1  0.16287000  0.67493190  0.01745850  1
  C  C344  1  0.66287000  0.82506810  0.51745850  1
  C  C345  1  0.33713000  0.82506810  0.98254150  1
  C  C346  1  0.16287000  0.32506810  0.51745850  1
  C  C347  1  0.83713000  0.32506810  0.98254150  1
  H  H348  1  0.38310000  0.14190000  0.50520000  1
  H  H349  1  0.61690000  0.14190000  0.99480000  1
  H  H350  1  0.88310000  0.64190000  0.50520000  1
  H  H351  1  0.11690000  0.64190000  0.99480000  1
  H  H352  1  0.61690000  0.85810000  0.49480000  1
  H  H353  1  0.38310000  0.85810000  0.00520000  1
  H  H354  1  0.11690000  0.35810000  0.49480000  1
  H  H355  1  0.88310000  0.35810000  0.00520000  1
  C  C356  1  0.19652000  0.27129160  0.41370130  1
  C  C357  1  0.80348000  0.27129160  0.08629870  1
  C  C358  1  0.69652000  0.77129160  0.41370130  1
  C  C359  1  0.30348000  0.77129160  0.08629870  1
  C  C360  1  0.80348000  0.72870840  0.58629870  1
  C  C361  1  0.19652000  0.72870840  0.91370130  1
  C  C362  1  0.30348000  0.22870840  0.58629870  1
  C  C363  1  0.69652000  0.22870840  0.91370130  1
  H  H364  1  0.14860000  0.30240000  0.39020000  1
  H  H365  1  0.85140000  0.30240000  0.10980000  1
  H  H366  1  0.64860000  0.80240000  0.39020000  1
  H  H367  1  0.35140000  0.80240000  0.10980000  1
  H  H368  1  0.85140000  0.69760000  0.60980000  1
  H  H369  1  0.14860000  0.69760000  0.89020000  1
  H  H370  1  0.35140000  0.19760000  0.60980000  1
  H  H371  1  0.64860000  0.19760000  0.89020000  1
  C  C372  1  0.28562000  0.22528170  0.51723130  1
  C  C373  1  0.71438000  0.22528170  0.98276870  1
  C  C374  1  0.78562000  0.72528170  0.51723130  1
  C  C375  1  0.21438000  0.72528170  0.98276870  1
  C  C376  1  0.71438000  0.77471830  0.48276870  1
  C  C377  1  0.28562000  0.77471830  0.01723130  1
  C  C378  1  0.21438000  0.27471830  0.48276870  1
  C  C379  1  0.78562000  0.27471830  0.01723130  1
