# generated using pymatgen
data_CuH8C16(NO2)2
_symmetry_space_group_name_H-M   'P 1'
_cell_length_a   32.97698540
_cell_length_b   32.97698540
_cell_length_c   32.97698540
_cell_angle_alpha   60.00000000
_cell_angle_beta   60.00000000
_cell_angle_gamma   60.00000000
_symmetry_Int_Tables_number   1
_chemical_formula_structural   CuH8C16(NO2)2
_chemical_formula_sum   'Cu12 H96 C192 N24 O48'
_cell_volume   25358.16702929
_cell_formula_units_Z   12
loop_
 _symmetry_equiv_pos_site_id
 _symmetry_equiv_pos_as_xyz
  1  'x, y, z'
loop_
 _atom_site_type_symbol
 _atom_site_label
 _atom_site_symmetry_multiplicity
 _atom_site_fract_x
 _atom_site_fract_y
 _atom_site_fract_z
 _atom_site_occupancy
  C  C288  1  0.03820800  0.03820800  0.51311800  1.0
  C  C289  1  0.03820800  0.51311800  0.03820800  1.0
  C  C290  1  0.51311800  0.03820800  0.03820800  1.0
  C  C291  1  0.58953400  0.96179200  0.48688200  1.0
  C  C292  1  0.96179200  0.58953400  0.96179200  1.0
  C  C293  1  0.48688200  0.96179200  0.58953400  1.0
  C  C294  1  0.58953400  0.48688200  0.96179200  1.0
  C  C295  1  0.96179200  0.96179200  0.58953400  1.0
  C  C296  1  0.48688200  0.58953400  0.96179200  1.0
  C  C297  1  0.58953400  0.96179200  0.96179200  1.0
  C  C298  1  0.96179200  0.58953400  0.48688200  1.0
  C  C299  1  0.96179200  0.48688200  0.58953400  1.0
  C  C336  1  0.41046600  0.51311800  0.03820800  1.0
  C  C337  1  0.51311800  0.41046600  0.03820800  1.0
  C  C338  1  0.03820800  0.03820800  0.41046600  1.0
  C  C339  1  0.51311800  0.03820800  0.41046600  1.0
  C  C340  1  0.41046600  0.03820800  0.51311800  1.0
  C  C341  1  0.03820800  0.41046600  0.03820800  1.0
  C  C342  1  0.03820800  0.41046600  0.51311800  1.0
  C  C343  1  0.03820800  0.51311800  0.41046600  1.0
  C  C344  1  0.41046600  0.03820800  0.03820800  1.0
  C  C345  1  0.96179200  0.48688200  0.96179200  1.0
  C  C346  1  0.96179200  0.96179200  0.48688200  1.0
  C  C347  1  0.48688200  0.96179200  0.96179200  1.0
  C  C384  1  0.06255900  0.06255900  0.51994700  1.0
  C  C385  1  0.06255900  0.51994700  0.06255900  1.0
  C  C386  1  0.51994700  0.06255900  0.06255900  1.0
  C  C387  1  0.64506500  0.93744100  0.48005300  1.0
  C  C388  1  0.93744100  0.64506500  0.93744100  1.0
  C  C389  1  0.48005300  0.93744100  0.64506500  1.0
  C  C390  1  0.64506500  0.48005300  0.93744100  1.0
  C  C391  1  0.93744100  0.93744100  0.64506500  1.0
  C  C392  1  0.48005300  0.64506500  0.93744100  1.0
  C  C393  1  0.64506500  0.93744100  0.93744100  1.0
  C  C394  1  0.93744100  0.64506500  0.48005300  1.0
  C  C395  1  0.93744100  0.48005300  0.64506500  1.0
  C  C432  1  0.35493500  0.51994700  0.06255900  1.0
  C  C433  1  0.51994700  0.35493500  0.06255900  1.0
  C  C434  1  0.06255900  0.06255900  0.35493500  1.0
  C  C435  1  0.51994700  0.06255900  0.35493500  1.0
  C  C436  1  0.35493500  0.06255900  0.51994700  1.0
  C  C437  1  0.06255900  0.35493500  0.06255900  1.0
  C  C438  1  0.06255900  0.35493500  0.51994700  1.0
  C  C439  1  0.06255900  0.51994700  0.35493500  1.0
  C  C440  1  0.35493500  0.06255900  0.06255900  1.0
  C  C441  1  0.93744100  0.48005300  0.93744100  1.0
  C  C442  1  0.93744100  0.93744100  0.48005300  1.0
  C  C443  1  0.48005300  0.93744100  0.93744100  1.0
  C  C480  1  0.03693700  0.11021700  0.52360900  1.0
  C  C481  1  0.11021700  0.52360900  0.03693700  1.0
  C  C482  1  0.52360900  0.03693700  0.11021700  1.0
  C  C483  1  0.67076300  0.88978300  0.47639100  1.0
  C  C484  1  0.88978300  0.67076300  0.96306300  1.0
  C  C485  1  0.47639100  0.96306300  0.67076300  1.0
  C  C486  1  0.67076300  0.47639100  0.96306300  1.0
  C  C487  1  0.96306300  0.88978300  0.67076300  1.0
  C  C488  1  0.47639100  0.67076300  0.88978300  1.0
  C  C489  1  0.67076300  0.96306300  0.88978300  1.0
  C  C490  1  0.96306300  0.67076300  0.47639100  1.0
  C  C491  1  0.88978300  0.47639100  0.67076300  1.0
  C  C528  1  0.32923700  0.52360900  0.11021700  1.0
  C  C529  1  0.52360900  0.32923700  0.03693700  1.0
  C  C530  1  0.11021700  0.03693700  0.32923700  1.0
  C  C531  1  0.52360900  0.11021700  0.32923700  1.0
  C  C532  1  0.32923700  0.03693700  0.52360900  1.0
  C  C533  1  0.03693700  0.32923700  0.11021700  1.0
  C  C534  1  0.11021700  0.32923700  0.52360900  1.0
  C  C535  1  0.03693700  0.52360900  0.32923700  1.0
  C  C536  1  0.32923700  0.11021700  0.03693700  1.0
  C  C537  1  0.96306300  0.47639100  0.88978300  1.0
  C  C538  1  0.88978300  0.96306300  0.47639100  1.0
  C  C539  1  0.47639100  0.88978300  0.96306300  1.0
  C  C576  1  0.96306300  0.88978300  0.47639100  1.0
  C  C577  1  0.88978300  0.47639100  0.96306300  1.0
  C  C578  1  0.47639100  0.96306300  0.88978300  1.0
  C  C579  1  0.32923700  0.11021700  0.52360900  1.0
  C  C580  1  0.11021700  0.32923700  0.03693700  1.0
  C  C581  1  0.52360900  0.03693700  0.32923700  1.0
  C  C582  1  0.32923700  0.52360900  0.03693700  1.0
  C  C583  1  0.03693700  0.11021700  0.32923700  1.0
  C  C584  1  0.52360900  0.32923700  0.11021700  1.0
  C  C585  1  0.32923700  0.03693700  0.11021700  1.0
  C  C586  1  0.03693700  0.32923700  0.52360900  1.0
  C  C587  1  0.11021700  0.52360900  0.32923700  1.0
  C  C624  1  0.67076300  0.47639100  0.88978300  1.0
  C  C625  1  0.47639100  0.67076300  0.96306300  1.0
  C  C626  1  0.88978300  0.96306300  0.67076300  1.0
  C  C627  1  0.47639100  0.88978300  0.67076300  1.0
  C  C628  1  0.67076300  0.96306300  0.47639100  1.0
  C  C629  1  0.96306300  0.67076300  0.88978300  1.0
  C  C630  1  0.88978300  0.67076300  0.47639100  1.0
  C  C631  1  0.96306300  0.47639100  0.67076300  1.0
  C  C632  1  0.67076300  0.88978300  0.96306300  1.0
  C  C633  1  0.03693700  0.52360900  0.11021700  1.0
  C  C634  1  0.11021700  0.03693700  0.52360900  1.0
  C  C635  1  0.52360900  0.11021700  0.03693700  1.0
  C  C864  1  0.06057700  0.13315700  0.52668900  1.0
  C  C865  1  0.13315700  0.52668900  0.06057700  1.0
  C  C866  1  0.52668900  0.06057700  0.13315700  1.0
  C  C867  1  0.72042300  0.86684300  0.47331100  1.0
  C  C868  1  0.86684300  0.72042300  0.93942300  1.0
  C  C869  1  0.47331100  0.93942300  0.72042300  1.0
  C  C870  1  0.72042300  0.47331100  0.93942300  1.0
  C  C871  1  0.93942300  0.86684300  0.72042300  1.0
  C  C872  1  0.47331100  0.72042300  0.86684300  1.0
  C  C873  1  0.72042300  0.93942300  0.86684300  1.0
  C  C874  1  0.93942300  0.72042300  0.47331100  1.0
  C  C875  1  0.86684300  0.47331100  0.72042300  1.0
  C  C912  1  0.27957700  0.52668900  0.13315700  1.0
  C  C913  1  0.52668900  0.27957700  0.06057700  1.0
  C  C914  1  0.13315700  0.06057700  0.27957700  1.0
  C  C915  1  0.52668900  0.13315700  0.27957700  1.0
  C  C916  1  0.27957700  0.06057700  0.52668900  1.0
  C  C917  1  0.06057700  0.27957700  0.13315700  1.0
  C  C918  1  0.13315700  0.27957700  0.52668900  1.0
  C  C919  1  0.06057700  0.52668900  0.27957700  1.0
  C  C920  1  0.27957700  0.13315700  0.06057700  1.0
  C  C921  1  0.93942300  0.47331100  0.86684300  1.0
  C  C922  1  0.86684300  0.93942300  0.47331100  1.0
  C  C923  1  0.47331100  0.86684300  0.93942300  1.0
  C  C960  1  0.93942300  0.86684300  0.47331100  1.0
  C  C961  1  0.86684300  0.47331100  0.93942300  1.0
  C  C962  1  0.47331100  0.93942300  0.86684300  1.0
  C  C963  1  0.27957700  0.13315700  0.52668900  1.0
  C  C964  1  0.13315700  0.27957700  0.06057700  1.0
  C  C965  1  0.52668900  0.06057700  0.27957700  1.0
  C  C966  1  0.27957700  0.52668900  0.06057700  1.0
  C  C967  1  0.06057700  0.13315700  0.27957700  1.0
  C  C968  1  0.52668900  0.27957700  0.13315700  1.0
  C  C969  1  0.27957700  0.06057700  0.13315700  1.0
  C  C970  1  0.06057700  0.27957700  0.52668900  1.0
  C  C971  1  0.13315700  0.52668900  0.27957700  1.0
  C  C1008  1  0.72042300  0.47331100  0.86684300  1.0
  C  C1009  1  0.47331100  0.72042300  0.93942300  1.0
  C  C1010  1  0.86684300  0.93942300  0.72042300  1.0
  C  C1011  1  0.47331100  0.86684300  0.72042300  1.0
  C  C1012  1  0.72042300  0.93942300  0.47331100  1.0
  C  C1013  1  0.93942300  0.72042300  0.86684300  1.0
  C  C1014  1  0.86684300  0.72042300  0.47331100  1.0
  C  C1015  1  0.93942300  0.47331100  0.72042300  1.0
  C  C1016  1  0.72042300  0.86684300  0.93942300  1.0
  C  C1017  1  0.06057700  0.52668900  0.13315700  1.0
  C  C1018  1  0.13315700  0.06057700  0.52668900  1.0
  C  C1019  1  0.52668900  0.13315700  0.06057700  1.0
  C  C1248  1  0.10834100  0.10834100  0.52844500  1.0
  C  C1249  1  0.10834100  0.52844500  0.10834100  1.0
  C  C1250  1  0.52844500  0.10834100  0.10834100  1.0
  C  C1251  1  0.74512700  0.89165900  0.47155500  1.0
  C  C1252  1  0.89165900  0.74512700  0.89165900  1.0
  C  C1253  1  0.47155500  0.89165900  0.74512700  1.0
  C  C1254  1  0.74512700  0.47155500  0.89165900  1.0
  C  C1255  1  0.89165900  0.89165900  0.74512700  1.0
  C  C1256  1  0.47155500  0.74512700  0.89165900  1.0
  C  C1257  1  0.74512700  0.89165900  0.89165900  1.0
  C  C1258  1  0.89165900  0.74512700  0.47155500  1.0
  C  C1259  1  0.89165900  0.47155500  0.74512700  1.0
  C  C1296  1  0.25487300  0.52844500  0.10834100  1.0
  C  C1297  1  0.52844500  0.25487300  0.10834100  1.0
  C  C1298  1  0.10834100  0.10834100  0.25487300  1.0
  C  C1299  1  0.52844500  0.10834100  0.25487300  1.0
  C  C1300  1  0.25487300  0.10834100  0.52844500  1.0
  C  C1301  1  0.10834100  0.25487300  0.10834100  1.0
  C  C1302  1  0.10834100  0.25487300  0.52844500  1.0
  C  C1303  1  0.10834100  0.52844500  0.25487300  1.0
  C  C1304  1  0.25487300  0.10834100  0.10834100  1.0
  C  C1305  1  0.89165900  0.47155500  0.89165900  1.0
  C  C1306  1  0.89165900  0.89165900  0.47155500  1.0
  C  C1307  1  0.47155500  0.89165900  0.89165900  1.0
  C  C1344  1  0.13362100  0.13362100  0.53178300  1.0
  C  C1345  1  0.13362100  0.53178300  0.13362100  1.0
  C  C1346  1  0.53178300  0.13362100  0.13362100  1.0
  C  C1347  1  0.79902500  0.86637900  0.46821700  1.0
  C  C1348  1  0.86637900  0.79902500  0.86637900  1.0
  C  C1349  1  0.46821700  0.86637900  0.79902500  1.0
  C  C1350  1  0.79902500  0.46821700  0.86637900  1.0
  C  C1351  1  0.86637900  0.86637900  0.79902500  1.0
  C  C1352  1  0.46821700  0.79902500  0.86637900  1.0
  C  C1353  1  0.79902500  0.86637900  0.86637900  1.0
  C  C1354  1  0.86637900  0.79902500  0.46821700  1.0
  C  C1355  1  0.86637900  0.46821700  0.79902500  1.0
  C  C1392  1  0.20097500  0.53178300  0.13362100  1.0
  C  C1393  1  0.53178300  0.20097500  0.13362100  1.0
  C  C1394  1  0.13362100  0.13362100  0.20097500  1.0
  C  C1395  1  0.53178300  0.13362100  0.20097500  1.0
  C  C1396  1  0.20097500  0.13362100  0.53178300  1.0
  C  C1397  1  0.13362100  0.20097500  0.13362100  1.0
  C  C1398  1  0.13362100  0.20097500  0.53178300  1.0
  C  C1399  1  0.13362100  0.53178300  0.20097500  1.0
  C  C1400  1  0.20097500  0.13362100  0.13362100  1.0
  C  C1401  1  0.86637900  0.46821700  0.86637900  1.0
  C  C1402  1  0.86637900  0.86637900  0.46821700  1.0
  C  C1403  1  0.46821700  0.86637900  0.86637900  1.0
  Cu  Cu0  1  0.04027000  0.95973000  0.49999976  1.0
  Cu  Cu1  1  0.95973000  0.49999976  0.04027000  1.0
  Cu  Cu2  1  0.49999976  0.04027000  0.95973000  1.0
  Cu  Cu3  1  0.49999976  0.04027000  0.50000024  1.0
  Cu  Cu4  1  0.04027000  0.49999976  0.95973000  1.0
  Cu  Cu5  1  0.50000024  0.95973000  0.49999976  1.0
  Cu  Cu6  1  0.49999976  0.50000024  0.95973000  1.0
  Cu  Cu7  1  0.95973000  0.04027000  0.49999976  1.0
  Cu  Cu8  1  0.50000024  0.49999976  0.04027000  1.0
  Cu  Cu9  1  0.49999976  0.95973000  0.04027000  1.0
  Cu  Cu10  1  0.95973000  0.49999976  0.50000024  1.0
  Cu  Cu11  1  0.04027000  0.50000024  0.49999976  1.0
  H  H672  1  0.00390000  0.12670000  0.52390000  1.0
  H  H673  1  0.12670000  0.52390000  0.00390000  1.0
  H  H674  1  0.52390000  0.00390000  0.12670000  1.0
  H  H675  1  0.65450000  0.87330000  0.47610000  1.0
  H  H676  1  0.87330000  0.65450000  0.99610000  1.0
  H  H677  1  0.47610000  0.99610000  0.65450000  1.0
  H  H678  1  0.65450000  0.47610000  0.99610000  1.0
  H  H679  1  0.99610000  0.87330000  0.65450000  1.0
  H  H680  1  0.47610000  0.65450000  0.87330000  1.0
  H  H681  1  0.65450000  0.99610000  0.87330000  1.0
  H  H682  1  0.99610000  0.65450000  0.47610000  1.0
  H  H683  1  0.87330000  0.47610000  0.65450000  1.0
  H  H720  1  0.34550000  0.52390000  0.12670000  1.0
  H  H721  1  0.52390000  0.34550000  0.00390000  1.0
  H  H722  1  0.12670000  0.00390000  0.34550000  1.0
  H  H723  1  0.52390000  0.12670000  0.34550000  1.0
  H  H724  1  0.34550000  0.00390000  0.52390000  1.0
  H  H725  1  0.00390000  0.34550000  0.12670000  1.0
  H  H726  1  0.12670000  0.34550000  0.52390000  1.0
  H  H727  1  0.00390000  0.52390000  0.34550000  1.0
  H  H728  1  0.34550000  0.12670000  0.00390000  1.0
  H  H729  1  0.99610000  0.47610000  0.87330000  1.0
  H  H730  1  0.87330000  0.99610000  0.47610000  1.0
  H  H731  1  0.47610000  0.87330000  0.99610000  1.0
  H  H768  1  0.99610000  0.87330000  0.47610000  1.0
  H  H769  1  0.87330000  0.47610000  0.99610000  1.0
  H  H770  1  0.47610000  0.99610000  0.87330000  1.0
  H  H771  1  0.34550000  0.12670000  0.52390000  1.0
  H  H772  1  0.12670000  0.34550000  0.00390000  1.0
  H  H773  1  0.52390000  0.00390000  0.34550000  1.0
  H  H774  1  0.34550000  0.52390000  0.00390000  1.0
  H  H775  1  0.00390000  0.12670000  0.34550000  1.0
  H  H776  1  0.52390000  0.34550000  0.12670000  1.0
  H  H777  1  0.34550000  0.00390000  0.12670000  1.0
  H  H778  1  0.00390000  0.34550000  0.52390000  1.0
  H  H779  1  0.12670000  0.52390000  0.34550000  1.0
  H  H816  1  0.65450000  0.47610000  0.87330000  1.0
  H  H817  1  0.47610000  0.65450000  0.99610000  1.0
  H  H818  1  0.87330000  0.99610000  0.65450000  1.0
  H  H819  1  0.47610000  0.87330000  0.65450000  1.0
  H  H820  1  0.65450000  0.99610000  0.47610000  1.0
  H  H821  1  0.99610000  0.65450000  0.87330000  1.0
  H  H822  1  0.87330000  0.65450000  0.47610000  1.0
  H  H823  1  0.99610000  0.47610000  0.65450000  1.0
  H  H824  1  0.65450000  0.87330000  0.99610000  1.0
  H  H825  1  0.00390000  0.52390000  0.12670000  1.0
  H  H826  1  0.12670000  0.00390000  0.52390000  1.0
  H  H827  1  0.52390000  0.12670000  0.00390000  1.0
  H  H1056  1  0.04390000  0.16570000  0.52770000  1.0
  H  H1057  1  0.16570000  0.52770000  0.04390000  1.0
  H  H1058  1  0.52770000  0.04390000  0.16570000  1.0
  H  H1059  1  0.73730000  0.83430000  0.47230000  1.0
  H  H1060  1  0.83430000  0.73730000  0.95610000  1.0
  H  H1061  1  0.47230000  0.95610000  0.73730000  1.0
  H  H1062  1  0.73730000  0.47230000  0.95610000  1.0
  H  H1063  1  0.95610000  0.83430000  0.73730000  1.0
  H  H1064  1  0.47230000  0.73730000  0.83430000  1.0
  H  H1065  1  0.73730000  0.95610000  0.83430000  1.0
  H  H1066  1  0.95610000  0.73730000  0.47230000  1.0
  H  H1067  1  0.83430000  0.47230000  0.73730000  1.0
  H  H1104  1  0.26270000  0.52770000  0.16570000  1.0
  H  H1105  1  0.52770000  0.26270000  0.04390000  1.0
  H  H1106  1  0.16570000  0.04390000  0.26270000  1.0
  H  H1107  1  0.52770000  0.16570000  0.26270000  1.0
  H  H1108  1  0.26270000  0.04390000  0.52770000  1.0
  H  H1109  1  0.04390000  0.26270000  0.16570000  1.0
  H  H1110  1  0.16570000  0.26270000  0.52770000  1.0
  H  H1111  1  0.04390000  0.52770000  0.26270000  1.0
  H  H1112  1  0.26270000  0.16570000  0.04390000  1.0
  H  H1113  1  0.95610000  0.47230000  0.83430000  1.0
  H  H1114  1  0.83430000  0.95610000  0.47230000  1.0
  H  H1115  1  0.47230000  0.83430000  0.95610000  1.0
  H  H1152  1  0.95610000  0.83430000  0.47230000  1.0
  H  H1153  1  0.83430000  0.47230000  0.95610000  1.0
  H  H1154  1  0.47230000  0.95610000  0.83430000  1.0
  H  H1155  1  0.26270000  0.16570000  0.52770000  1.0
  H  H1156  1  0.16570000  0.26270000  0.04390000  1.0
  H  H1157  1  0.52770000  0.04390000  0.26270000  1.0
  H  H1158  1  0.26270000  0.52770000  0.04390000  1.0
  H  H1159  1  0.04390000  0.16570000  0.26270000  1.0
  H  H1160  1  0.52770000  0.26270000  0.16570000  1.0
  H  H1161  1  0.26270000  0.04390000  0.16570000  1.0
  H  H1162  1  0.04390000  0.26270000  0.52770000  1.0
  H  H1163  1  0.16570000  0.52770000  0.26270000  1.0
  H  H1200  1  0.73730000  0.47230000  0.83430000  1.0
  H  H1201  1  0.47230000  0.73730000  0.95610000  1.0
  H  H1202  1  0.83430000  0.95610000  0.73730000  1.0
  H  H1203  1  0.47230000  0.83430000  0.73730000  1.0
  H  H1204  1  0.73730000  0.95610000  0.47230000  1.0
  H  H1205  1  0.95610000  0.73730000  0.83430000  1.0
  H  H1206  1  0.83430000  0.73730000  0.47230000  1.0
  H  H1207  1  0.95610000  0.47230000  0.73730000  1.0
  H  H1208  1  0.73730000  0.83430000  0.95610000  1.0
  H  H1209  1  0.04390000  0.52770000  0.16570000  1.0
  H  H1210  1  0.16570000  0.04390000  0.52770000  1.0
  H  H1211  1  0.52770000  0.16570000  0.04390000  1.0
  N  N1440  1  0.10856400  0.18000800  0.53142000  1.0
  N  N1441  1  0.18000800  0.53142000  0.10856400  1.0
  N  N1442  1  0.53142000  0.10856400  0.18000800  1.0
  N  N1443  1  0.81999200  0.81999200  0.46858000  1.0
  N  N1444  1  0.81999200  0.81999200  0.89143600  1.0
  N  N1445  1  0.46858000  0.89143600  0.81999200  1.0
  N  N1446  1  0.81999200  0.46858000  0.89143600  1.0
  N  N1447  1  0.89143600  0.81999200  0.81999200  1.0
  N  N1448  1  0.46858000  0.81999200  0.81999200  1.0
  N  N1449  1  0.81999200  0.89143600  0.81999200  1.0
  N  N1450  1  0.89143600  0.81999200  0.46858000  1.0
  N  N1451  1  0.81999200  0.46858000  0.81999200  1.0
  N  N1488  1  0.18000800  0.53142000  0.18000800  1.0
  N  N1489  1  0.53142000  0.18000800  0.10856400  1.0
  N  N1490  1  0.18000800  0.10856400  0.18000800  1.0
  N  N1491  1  0.53142000  0.18000800  0.18000800  1.0
  N  N1492  1  0.18000800  0.10856400  0.53142000  1.0
  N  N1493  1  0.10856400  0.18000800  0.18000800  1.0
  N  N1494  1  0.18000800  0.18000800  0.53142000  1.0
  N  N1495  1  0.10856400  0.53142000  0.18000800  1.0
  N  N1496  1  0.18000800  0.18000800  0.10856400  1.0
  N  N1497  1  0.89143600  0.46858000  0.81999200  1.0
  N  N1498  1  0.81999200  0.89143600  0.46858000  1.0
  N  N1499  1  0.46858000  0.81999200  0.89143600  1.0
  O  O96  1  0.06358400  0.99556400  0.51292800  1.0
  O  O97  1  0.99556400  0.51292800  0.06358400  1.0
  O  O98  1  0.51292800  0.06358400  0.99556400  1.0
  O  O99  1  0.57207600  0.00443600  0.48707200  1.0
  O  O100  1  0.00443600  0.57207600  0.93641600  1.0
  O  O101  1  0.48707200  0.93641600  0.57207600  1.0
  O  O102  1  0.57207600  0.48707200  0.93641600  1.0
  O  O103  1  0.93641600  0.00443600  0.57207600  1.0
  O  O104  1  0.48707200  0.57207600  0.00443600  1.0
  O  O105  1  0.57207600  0.93641600  0.00443600  1.0
  O  O106  1  0.93641600  0.57207600  0.48707200  1.0
  O  O107  1  0.00443600  0.48707200  0.57207600  1.0
  O  O144  1  0.42792400  0.51292800  0.99556400  1.0
  O  O145  1  0.51292800  0.42792400  0.06358400  1.0
  O  O146  1  0.99556400  0.06358400  0.42792400  1.0
  O  O147  1  0.51292800  0.99556400  0.42792400  1.0
  O  O148  1  0.42792400  0.06358400  0.51292800  1.0
  O  O149  1  0.06358400  0.42792400  0.99556400  1.0
  O  O150  1  0.99556400  0.42792400  0.51292800  1.0
  O  O151  1  0.06358400  0.51292800  0.42792400  1.0
  O  O152  1  0.42792400  0.99556400  0.06358400  1.0
  O  O153  1  0.93641600  0.48707200  0.00443600  1.0
  O  O154  1  0.00443600  0.93641600  0.48707200  1.0
  O  O155  1  0.48707200  0.00443600  0.93641600  1.0
  O  O192  1  0.93641600  0.00443600  0.48707200  1.0
  O  O193  1  0.00443600  0.48707200  0.93641600  1.0
  O  O194  1  0.48707200  0.93641600  0.00443600  1.0
  O  O195  1  0.42792400  0.99556400  0.51292800  1.0
  O  O196  1  0.99556400  0.42792400  0.06358400  1.0
  O  O197  1  0.51292800  0.06358400  0.42792400  1.0
  O  O198  1  0.42792400  0.51292800  0.06358400  1.0
  O  O199  1  0.06358400  0.99556400  0.42792400  1.0
  O  O200  1  0.51292800  0.42792400  0.99556400  1.0
  O  O201  1  0.42792400  0.06358400  0.99556400  1.0
  O  O202  1  0.06358400  0.42792400  0.51292800  1.0
  O  O203  1  0.99556400  0.51292800  0.42792400  1.0
  O  O240  1  0.57207600  0.48707200  0.00443600  1.0
  O  O241  1  0.48707200  0.57207600  0.93641600  1.0
  O  O242  1  0.00443600  0.93641600  0.57207600  1.0
  O  O243  1  0.48707200  0.00443600  0.57207600  1.0
  O  O244  1  0.57207600  0.93641600  0.48707200  1.0
  O  O245  1  0.93641600  0.57207600  0.00443600  1.0
  O  O246  1  0.00443600  0.57207600  0.48707200  1.0
  O  O247  1  0.93641600  0.48707200  0.57207600  1.0
  O  O248  1  0.57207600  0.00443600  0.93641600  1.0
  O  O249  1  0.06358400  0.51292800  0.99556400  1.0
  O  O250  1  0.99556400  0.06358400  0.51292800  1.0
  O  O251  1  0.51292800  0.99556400  0.06358400  1.0
