# generated using pymatgen
data_TmH17C15N2O9
_symmetry_space_group_name_H-M   'P 1'
_cell_length_a   18.38220000
_cell_length_b   11.59291500
_cell_length_c   19.63230000
_cell_angle_alpha   90.00000000
_cell_angle_beta   107.08620000
_cell_angle_gamma   90.00000000
_symmetry_Int_Tables_number   1
_chemical_formula_structural   TmH17C15N2O9
_chemical_formula_sum   'Tm8 H136 C120 N16 O72'
_cell_volume   3999.05464624
_cell_formula_units_Z   8
loop_
 _symmetry_equiv_pos_site_id
 _symmetry_equiv_pos_as_xyz
  1  'x, y, z'
loop_
 _atom_site_type_symbol
 _atom_site_label
 _atom_site_symmetry_multiplicity
 _atom_site_fract_x
 _atom_site_fract_y
 _atom_site_fract_z
 _atom_site_occupancy
  Tm  Tm0  1  0.42508200  0.32928400  0.41693200  1
  Tm  Tm1  1  0.92508200  0.82928400  0.41693200  1
  Tm  Tm2  1  0.57491800  0.32928400  0.08306800  1
  Tm  Tm3  1  0.07491800  0.82928400  0.08306800  1
  Tm  Tm4  1  0.57491800  0.67071600  0.58306800  1
  Tm  Tm5  1  0.07491800  0.17071600  0.58306800  1
  Tm  Tm6  1  0.42508200  0.67071600  0.91693200  1
  Tm  Tm7  1  0.92508200  0.17071600  0.91693200  1
  O  O8  1  0.32415000  0.23328000  0.44724000  1
  O  O9  1  0.82415000  0.73328000  0.44724000  1
  O  O10  1  0.67585000  0.23328000  0.05276000  1
  O  O11  1  0.17585000  0.73328000  0.05276000  1
  O  O12  1  0.67585000  0.76672000  0.55276000  1
  O  O13  1  0.17585000  0.26672000  0.55276000  1
  O  O14  1  0.32415000  0.76672000  0.94724000  1
  O  O15  1  0.82415000  0.26672000  0.94724000  1
  O  O16  1  0.34914000  0.18038000  0.35124000  1
  O  O17  1  0.84914000  0.68038000  0.35124000  1
  O  O18  1  0.65086000  0.18038000  0.14876000  1
  O  O19  1  0.15086000  0.68038000  0.14876000  1
  O  O20  1  0.65086000  0.81962000  0.64876000  1
  O  O21  1  0.15086000  0.31962000  0.64876000  1
  O  O22  1  0.34914000  0.81962000  0.85124000  1
  O  O23  1  0.84914000  0.31962000  0.85124000  1
  O  O24  1  0.15604000  0.94773000  0.16983000  1
  O  O25  1  0.65604000  0.44773000  0.16983000  1
  O  O26  1  0.84396000  0.94773000  0.33017000  1
  O  O27  1  0.34396000  0.44773000  0.33017000  1
  O  O28  1  0.84396000  0.05227000  0.83017000  1
  O  O29  1  0.34396000  0.55227000  0.83017000  1
  O  O30  1  0.15604000  0.05227000  0.66983000  1
  O  O31  1  0.65604000  0.55227000  0.66983000  1
  O  O32  1  0.06984000  0.85334000  0.20343000  1
  O  O33  1  0.56984000  0.35334000  0.20343000  1
  O  O34  1  0.93016000  0.85334000  0.29657000  1
  O  O35  1  0.43016000  0.35334000  0.29657000  1
  O  O36  1  0.93016000  0.14666000  0.79657000  1
  O  O37  1  0.43016000  0.64666000  0.79657000  1
  O  O38  1  0.06984000  0.14666000  0.70343000  1
  O  O39  1  0.56984000  0.64666000  0.70343000  1
  O  O40  1  0.02614000  0.94633000  0.43373000  1
  O  O41  1  0.52614000  0.44633000  0.43373000  1
  O  O42  1  0.97386000  0.94633000  0.06627000  1
  O  O43  1  0.47386000  0.44633000  0.06627000  1
  O  O44  1  0.97386000  0.05367000  0.56627000  1
  O  O45  1  0.47386000  0.55367000  0.56627000  1
  O  O46  1  0.02614000  0.05367000  0.93373000  1
  O  O47  1  0.52614000  0.55367000  0.93373000  1
  O  O48  1  0.11553000  0.03426000  0.51903000  1
  O  O49  1  0.61553000  0.53426000  0.51903000  1
  O  O50  1  0.88447000  0.03426000  0.98097000  1
  O  O51  1  0.38447000  0.53426000  0.98097000  1
  O  O52  1  0.88447000  0.96574000  0.48097000  1
  O  O53  1  0.38447000  0.46574000  0.48097000  1
  O  O54  1  0.11553000  0.96574000  0.01903000  1
  O  O55  1  0.61553000  0.46574000  0.01903000  1
  C  C80  1  0.30825000  0.17641000  0.39215000  1
  C  C81  1  0.80825000  0.67641000  0.39215000  1
  C  C82  1  0.69175000  0.17641000  0.10785000  1
  C  C83  1  0.19175000  0.67641000  0.10785000  1
  C  C84  1  0.69175000  0.82359000  0.60785000  1
  C  C85  1  0.19175000  0.32359000  0.60785000  1
  C  C86  1  0.30825000  0.82359000  0.89215000  1
  C  C87  1  0.80825000  0.32359000  0.89215000  1
  C  C88  1  0.23985000  0.09689000  0.37465000  1
  C  C89  1  0.73985000  0.59689000  0.37465000  1
  C  C90  1  0.76015000  0.09689000  0.12535000  1
  C  C91  1  0.26015000  0.59689000  0.12535000  1
  C  C92  1  0.76015000  0.90311000  0.62535000  1
  C  C93  1  0.26015000  0.40311000  0.62535000  1
  C  C94  1  0.23985000  0.90311000  0.87465000  1
  C  C95  1  0.73985000  0.40311000  0.87465000  1
  C  C96  1  0.19955000  0.08189000  0.42355000  1
  C  C97  1  0.69955000  0.58189000  0.42355000  1
  C  C98  1  0.80045000  0.08189000  0.07645000  1
  C  C99  1  0.30045000  0.58189000  0.07645000  1
  C  C100  1  0.80045000  0.91811000  0.57645000  1
  C  C101  1  0.30045000  0.41811000  0.57645000  1
  C  C102  1  0.19955000  0.91811000  0.92355000  1
  C  C103  1  0.69955000  0.41811000  0.92355000  1
  H  H104  1  0.21540000  0.11700000  0.46800000  1
  H  H105  1  0.71540000  0.61700000  0.46800000  1
  H  H106  1  0.78460000  0.11700000  0.03200000  1
  H  H107  1  0.28460000  0.61700000  0.03200000  1
  H  H108  1  0.78460000  0.88300000  0.53200000  1
  H  H109  1  0.28460000  0.38300000  0.53200000  1
  H  H110  1  0.21540000  0.88300000  0.96800000  1
  H  H111  1  0.71540000  0.38300000  0.96800000  1
  C  C112  1  0.13475000  0.01299000  0.40484000  1
  C  C113  1  0.63475000  0.51299000  0.40484000  1
  C  C114  1  0.86525000  0.01299000  0.09516000  1
  C  C115  1  0.36525000  0.51299000  0.09516000  1
  C  C116  1  0.86525000  0.98701000  0.59516000  1
  C  C117  1  0.36525000  0.48701000  0.59516000  1
  C  C118  1  0.13475000  0.98701000  0.90484000  1
  C  C119  1  0.63475000  0.48701000  0.90484000  1
  C  C120  1  0.11145000  0.95951000  0.33924000  1
  C  C121  1  0.61145000  0.45951000  0.33924000  1
  C  C122  1  0.88855000  0.95951000  0.16076000  1
  C  C123  1  0.38855000  0.45951000  0.16076000  1
  C  C124  1  0.88855000  0.04049000  0.66076000  1
  C  C125  1  0.38855000  0.54049000  0.66076000  1
  C  C126  1  0.11145000  0.04049000  0.83924000  1
  C  C127  1  0.61145000  0.54049000  0.83924000  1
  H  H128  1  0.06810000  0.91330000  0.32750000  1
  H  H129  1  0.56810000  0.41330000  0.32750000  1
  H  H130  1  0.93190000  0.91330000  0.17250000  1
  H  H131  1  0.43190000  0.41330000  0.17250000  1
  H  H132  1  0.93190000  0.08670000  0.67250000  1
  H  H133  1  0.43190000  0.58670000  0.67250000  1
  H  H134  1  0.06810000  0.08670000  0.82750000  1
  H  H135  1  0.56810000  0.58670000  0.82750000  1
  C  C136  1  0.15315000  0.97509000  0.28965000  1
  C  C137  1  0.65315000  0.47509000  0.28965000  1
  C  C138  1  0.84685000  0.97509000  0.21035000  1
  C  C139  1  0.34685000  0.47509000  0.21035000  1
  C  C140  1  0.84685000  0.02491000  0.71035000  1
  C  C141  1  0.34685000  0.52491000  0.71035000  1
  C  C142  1  0.15315000  0.02491000  0.78965000  1
  C  C143  1  0.65315000  0.52491000  0.78965000  1
  C  C144  1  0.21695000  0.04299000  0.30875000  1
  C  C145  1  0.71695000  0.54299000  0.30875000  1
  C  C146  1  0.78305000  0.04299000  0.19125000  1
  C  C147  1  0.28305000  0.54299000  0.19125000  1
  C  C148  1  0.78305000  0.95701000  0.69125000  1
  C  C149  1  0.28305000  0.45701000  0.69125000  1
  C  C150  1  0.21695000  0.95701000  0.80875000  1
  C  C151  1  0.71695000  0.45701000  0.80875000  1
  H  H152  1  0.24530000  0.05300000  0.27690000  1
  H  H153  1  0.74530000  0.55300000  0.27690000  1
  H  H154  1  0.75470000  0.05300000  0.22310000  1
  H  H155  1  0.25470000  0.55300000  0.22310000  1
  H  H156  1  0.75470000  0.94700000  0.72310000  1
  H  H157  1  0.25470000  0.44700000  0.72310000  1
  H  H158  1  0.24530000  0.94700000  0.77690000  1
  H  H159  1  0.74530000  0.44700000  0.77690000  1
  C  C160  1  0.12466000  0.92011000  0.21705000  1
  C  C161  1  0.62466000  0.42011000  0.21705000  1
  C  C162  1  0.87534000  0.92011000  0.28295000  1
  C  C163  1  0.37534000  0.42011000  0.28295000  1
  C  C164  1  0.87534000  0.07989000  0.78295000  1
  C  C165  1  0.37534000  0.57989000  0.78295000  1
  C  C166  1  0.12466000  0.07989000  0.71705000  1
  C  C167  1  0.62466000  0.57989000  0.71705000  1
  C  C168  1  0.08815000  0.00000000  0.45625000  1
  C  C169  1  0.58815000  0.49679000  0.45625000  1
  C  C170  1  0.91185000  0.00000000  0.04375000  1
  C  C171  1  0.41185000  0.49679000  0.04375000  1
  C  C172  1  0.91185000  0.00321000  0.54375000  1
  C  C173  1  0.41185000  0.50321000  0.54375000  1
  C  C174  1  0.08815000  0.00321000  0.95625000  1
  C  C175  1  0.58815000  0.50321000  0.95625000  1
