# generated using pymatgen
data_LaH6C4N3O7
_symmetry_space_group_name_H-M   'P 1'
_cell_length_a   8.94105000
_cell_length_b   8.94105000
_cell_length_c   10.02605000
_cell_angle_alpha   90.00000000
_cell_angle_beta   90.00000000
_cell_angle_gamma   120.00000000
_symmetry_Int_Tables_number   1
_chemical_formula_structural   LaH6C4N3O7
_chemical_formula_sum   'La3 H18 C12 N9 O21'
_cell_volume   694.12477370
_cell_formula_units_Z   3
loop_
 _symmetry_equiv_pos_site_id
 _symmetry_equiv_pos_as_xyz
  1  'x, y, z'
loop_
 _atom_site_type_symbol
 _atom_site_label
 _atom_site_symmetry_multiplicity
 _atom_site_fract_x
 _atom_site_fract_y
 _atom_site_fract_z
 _atom_site_occupancy
  La  La0  1  0.22551400  0.22551400  0.49997000  1
  La  La1  1  0.77448600  0.00000000  0.16663667  1
  La  La2  1  0.00000000  0.77448600  0.83330333  1
  O  O3  1  0.46585000  0.17788000  0.42564000  1
  O  O4  1  0.82212000  0.28797000  0.09230667  1
  O  O5  1  0.71203000  0.53415000  0.75897333  1
  O  O6  1  0.28797000  0.82212000  0.90769333  1
  O  O7  1  0.53415000  0.71203000  0.24102667  1
  O  O8  1  0.17788000  0.46585000  0.57436000  1
  O  O9  1  0.00000000  0.24910300  0.33337000  1
  O  O10  1  0.75089700  0.75089700  0.00003667  1
  O  O11  1  0.24910300  0.00000000  0.66670333  1
  H  H12  1  0.06550000  0.34260000  0.29207000  1
  H  H13  1  0.65740000  0.72290000  0.95873667  1
  H  H14  1  0.27710000  0.93450000  0.62540333  1
  H  H15  1  0.72290000  0.65740000  0.04126333  1
  H  H16  1  0.93450000  0.27710000  0.37459667  1
  H  H17  1  0.34260000  0.06550000  0.70793000  1
  C  C18  1  0.47290000  0.09870300  0.32497000  1
  C  C19  1  0.90129700  0.37419700  0.99163667  1
  C  C20  1  0.62580300  0.52710000  0.65830333  1
  C  C21  1  0.37419700  0.90129700  0.00836333  1
  C  C22  1  0.52710000  0.62580300  0.34169667  1
  C  C23  1  0.09870300  0.47290000  0.67503000  1
  N  N24  1  0.19400000  0.06350300  0.26407000  1
  N  N25  1  0.93649700  0.13049700  0.93073667  1
  N  N26  1  0.86950300  0.80600000  0.59740333  1
  N  N27  1  0.13049700  0.93649700  0.06926333  1
  N  N28  1  0.80600000  0.86950300  0.40259667  1
  N  N29  1  0.06350300  0.19400000  0.73593000  1
  C  C30  1  0.32590000  0.04000300  0.22907000  1
  C  C31  1  0.95999700  0.28589700  0.89573667  1
  C  C32  1  0.71410300  0.67410000  0.56240333  1
  C  C33  1  0.28589700  0.95999700  0.10426333  1
  C  C34  1  0.67410000  0.71410300  0.43759667  1
  C  C35  1  0.04000300  0.32590000  0.77093000  1
  N  N54  1  0.07620000  0.00010300  0.16667000  1
  N  N55  1  0.00000000  0.07609700  0.83333667  1
  N  N56  1  0.92390300  0.92380000  0.50000333  1
  O  O57  1  0.59160000  0.06640300  0.30357000  1
  O  O58  1  0.93359700  0.52519700  0.97023667  1
  O  O59  1  0.47480300  0.40840000  0.63690333  1
  O  O60  1  0.52519700  0.93359700  0.02976333  1
  O  O61  1  0.40840000  0.47480300  0.36309667  1
  O  O62  1  0.06640300  0.59160000  0.69643000  1
