# generated using pymatgen
data_LuH15C15(N2O5)2
_symmetry_space_group_name_H-M   'P 1'
_cell_length_a   10.03447000
_cell_length_b   17.32689000
_cell_length_c   11.31467000
_cell_angle_alpha   90.00000000
_cell_angle_beta   109.55480000
_cell_angle_gamma   90.00000000
_symmetry_Int_Tables_number   1
_chemical_formula_structural   LuH15C15(N2O5)2
_chemical_formula_sum   'Lu4 H60 C60 N16 O40'
_cell_volume   1853.77142983
_cell_formula_units_Z   4
loop_
 _symmetry_equiv_pos_site_id
 _symmetry_equiv_pos_as_xyz
  1  'x, y, z'
loop_
 _atom_site_type_symbol
 _atom_site_label
 _atom_site_symmetry_multiplicity
 _atom_site_fract_x
 _atom_site_fract_y
 _atom_site_fract_z
 _atom_site_occupancy
  Lu  Lu0  1  0.99342700  0.50685315  0.31793200  1
  Lu  Lu1  1  0.00657300  0.00685315  0.18206800  1
  Lu  Lu2  1  0.00657300  0.49314685  0.68206800  1
  Lu  Lu3  1  0.99342700  0.99314685  0.81793200  1
  O  O4  1  0.14414000  0.41872000  0.27164000  1
  O  O5  1  0.85586000  0.91872000  0.22836000  1
  O  O6  1  0.85586000  0.58128000  0.72836000  1
  O  O7  1  0.14414000  0.08128000  0.77164000  1
  O  O8  1  0.77775000  0.49062000  0.34804000  1
  O  O9  1  0.22225000  0.99062000  0.15196000  1
  O  O10  1  0.22225000  0.50938000  0.65196000  1
  O  O11  1  0.77775000  0.00938000  0.84804000  1
  O  O12  1  0.79334000  0.45512000  0.54294000  1
  O  O13  1  0.20666000  0.95512000  0.95706000  1
  O  O14  1  0.20666000  0.54488000  0.45706000  1
  O  O15  1  0.79334000  0.04488000  0.04294000  1
  O  O16  1  0.94566000  0.86442000  0.84886000  1
  O  O17  1  0.05434000  0.36442000  0.65114000  1
  O  O18  1  0.05434000  0.13558000  0.15114000  1
  O  O19  1  0.94566000  0.63558000  0.34886000  1
  N  N20  1  0.77004000  0.47043000  0.09615000  1
  N  N21  1  0.22996000  0.97043000  0.40385000  1
  N  N22  1  0.22996000  0.52957000  0.90385000  1
  N  N23  1  0.77004000  0.02957000  0.59615000  1
  O  O24  1  0.79835000  0.53993000  0.12454000  1
  O  O25  1  0.20165000  0.03993000  0.37546000  1
  O  O26  1  0.20165000  0.46007000  0.87546000  1
  O  O27  1  0.79835000  0.96007000  0.62454000  1
  O  O28  1  0.97856000  0.91512000  0.03544000  1
  O  O29  1  0.02144000  0.41512000  0.46456000  1
  O  O30  1  0.02144000  0.08488000  0.96456000  1
  O  O31  1  0.97856000  0.58488000  0.53544000  1
  O  O32  1  0.85645000  0.42032000  0.16054000  1
  O  O33  1  0.14355000  0.92032000  0.33946000  1
  O  O34  1  0.14355000  0.57968000  0.83946000  1
  O  O35  1  0.85645000  0.07968000  0.66054000  1
  O  O36  1  0.08834000  0.56612000  0.18194000  1
  O  O37  1  0.91166000  0.06612000  0.31806000  1
  O  O38  1  0.91166000  0.43388000  0.81806000  1
  O  O39  1  0.08834000  0.93388000  0.68194000  1
  C  C40  1  0.96744000  0.85803000  0.96414000  1
  C  C41  1  0.03256000  0.35803000  0.53586000  1
  C  C42  1  0.03256000  0.14197000  0.03586000  1
  C  C43  1  0.96744000  0.64197000  0.46414000  1
  C  C44  1  0.57116000  0.44764000  0.38215000  1
  C  C45  1  0.42884000  0.94764000  0.11785000  1
  C  C46  1  0.42884000  0.55236000  0.61785000  1
  C  C47  1  0.57116000  0.05236000  0.88215000  1
  C  C48  1  0.48517000  0.47154000  0.26486000  1
  C  C49  1  0.51483000  0.97154000  0.23514000  1
  C  C50  1  0.51483000  0.52846000  0.73514000  1
  C  C51  1  0.48517000  0.02846000  0.76486000  1
  H  H52  1  0.52460000  0.49440000  0.20990000  1
  H  H53  1  0.47540000  0.99440000  0.29010000  1
  H  H54  1  0.47540000  0.50560000  0.79010000  1
  H  H55  1  0.52460000  0.00560000  0.70990000  1
  C  C56  1  0.51016000  0.40974000  0.45846000  1
  C  C57  1  0.48984000  0.90974000  0.04154000  1
  C  C58  1  0.48984000  0.59026000  0.54154000  1
  C  C59  1  0.51016000  0.09026000  0.95846000  1
  H  H60  1  0.56680000  0.39170000  0.53640000  1
  H  H61  1  0.43320000  0.89170000  0.96360000  1
  H  H62  1  0.43320000  0.60830000  0.46360000  1
  H  H63  1  0.56680000  0.10830000  0.03640000  1
  C  C64  1  0.34207000  0.46164000  0.22956000  1
  C  C65  1  0.65793000  0.96164000  0.27044000  1
  C  C66  1  0.65793000  0.53836000  0.77044000  1
  C  C67  1  0.34207000  0.03836000  0.72956000  1
  H  H68  1  0.28440000  0.47900000  0.15140000  1
  H  H69  1  0.71560000  0.97900000  0.34860000  1
  H  H70  1  0.71560000  0.52100000  0.84860000  1
  H  H71  1  0.28440000  0.02100000  0.65140000  1
  N  N72  1  0.28395000  0.42703000  0.30624000  1
  N  N73  1  0.71605000  0.92703000  0.19376000  1
  N  N74  1  0.71605000  0.57297000  0.69376000  1
  N  N75  1  0.28395000  0.07297000  0.80624000  1
  C  C76  1  0.36406000  0.39834000  0.41965000  1
  C  C77  1  0.63594000  0.89834000  0.08035000  1
  C  C78  1  0.63594000  0.60166000  0.58035000  1
  C  C79  1  0.36406000  0.10166000  0.91965000  1
  H  H80  1  0.32260000  0.37180000  0.46990000  1
  H  H81  1  0.67740000  0.87180000  0.03010000  1
  H  H82  1  0.67740000  0.62820000  0.53010000  1
  H  H83  1  0.32260000  0.12820000  0.96990000  1
  O  O84  1  0.66385000  0.45163000  0.00954000  1
  O  O85  1  0.33615000  0.95163000  0.49046000  1
  O  O86  1  0.33615000  0.54837000  0.99046000  1
  O  O87  1  0.66385000  0.04837000  0.50954000  1
  C  C88  1  0.09867000  0.70004000  0.20256000  1
  C  C89  1  0.90133000  0.20004000  0.29744000  1
  C  C90  1  0.90133000  0.29996000  0.79744000  1
  C  C91  1  0.09867000  0.79996000  0.70256000  1
  H  H92  1  0.15040000  0.69480000  0.28730000  1
  H  H93  1  0.84960000  0.19480000  0.21270000  1
  H  H94  1  0.84960000  0.30520000  0.71270000  1
  H  H95  1  0.15040000  0.80520000  0.78730000  1
  C  C96  1  0.99314000  0.77944000  0.02395000  1
  C  C97  1  0.00686000  0.27944000  0.47605000  1
  C  C98  1  0.00686000  0.22056000  0.97605000  1
  C  C99  1  0.99314000  0.72056000  0.52395000  1
  C  C100  1  0.72726000  0.46474000  0.42795000  1
  C  C101  1  0.27274000  0.96474000  0.07205000  1
  C  C102  1  0.27274000  0.53526000  0.57205000  1
  C  C103  1  0.72726000  0.03526000  0.92795000  1
  C  C104  1  0.95353000  0.71224000  0.95094000  1
  C  C105  1  0.04647000  0.21224000  0.54906000  1
  C  C106  1  0.04647000  0.28776000  0.04906000  1
  C  C107  1  0.95353000  0.78776000  0.45094000  1
  H  H108  1  0.90730000  0.71560000  0.86490000  1
  H  H109  1  0.09270000  0.21560000  0.63510000  1
  H  H110  1  0.09270000  0.28440000  0.13510000  1
  H  H111  1  0.90730000  0.78440000  0.36490000  1
  C  C112  1  0.06737000  0.77154000  0.15195000  1
  C  C113  1  0.93263000  0.27154000  0.34805000  1
  C  C114  1  0.93263000  0.22846000  0.84805000  1
  C  C115  1  0.06737000  0.72846000  0.65195000  1
  H  H116  1  0.09500000  0.81500000  0.20230000  1
  H  H117  1  0.90500000  0.31500000  0.29770000  1
  H  H118  1  0.90500000  0.18500000  0.79770000  1
  H  H119  1  0.09500000  0.68500000  0.70230000  1
  N  N120  1  0.05525000  0.63563000  0.13094000  1
  N  N121  1  0.94475000  0.13563000  0.36906000  1
  N  N122  1  0.94475000  0.36437000  0.86906000  1
  N  N123  1  0.05525000  0.86437000  0.63094000  1
  C  C124  1  0.98374000  0.64154000  0.00815000  1
  C  C125  1  0.01626000  0.14154000  0.49185000  1
  C  C126  1  0.01626000  0.35846000  0.99185000  1
  C  C127  1  0.98374000  0.85846000  0.50815000  1
  H  H128  1  0.95410000  0.59700000  0.96070000  1
  H  H129  1  0.04590000  0.09700000  0.53930000  1
  H  H130  1  0.04590000  0.40300000  0.03930000  1
  H  H131  1  0.95410000  0.90300000  0.46070000  1
