# generated using pymatgen
data_CoHC4IO3
_symmetry_space_group_name_H-M   'P 1'
_cell_length_a   25.80201700
_cell_length_b   25.80201700
_cell_length_c   6.78420000
_cell_angle_alpha   90.00000000
_cell_angle_beta   90.00000000
_cell_angle_gamma   120.00000000
_symmetry_Int_Tables_number   1
_chemical_formula_structural   CoHC4IO3
_chemical_formula_sum   'Co18 H18 C72 I18 O54'
_cell_volume   3911.43923989
_cell_formula_units_Z   18
loop_
 _symmetry_equiv_pos_site_id
 _symmetry_equiv_pos_as_xyz
  1  'x, y, z'
loop_
 _atom_site_type_symbol
 _atom_site_label
 _atom_site_symmetry_multiplicity
 _atom_site_fract_x
 _atom_site_fract_y
 _atom_site_fract_z
 _atom_site_occupancy
  Co  Co0  1  0.37474500  0.32441700  0.38816190  1
  Co  Co1  1  0.67558300  0.05032800  0.38816190  1
  Co  Co2  1  0.94967200  0.62525500  0.38816190  1
  Co  Co3  1  0.94967200  0.32441700  0.38816190  1
  Co  Co4  1  0.37474500  0.05032800  0.38816190  1
  Co  Co5  1  0.67558300  0.62525500  0.38816190  1
  Co  Co6  1  0.04141167  0.65775033  0.72149523  1
  Co  Co7  1  0.34224967  0.38366133  0.72149523  1
  Co  Co8  1  0.61633867  0.95858833  0.72149523  1
  Co  Co9  1  0.61633867  0.65775033  0.72149523  1
  Co  Co10  1  0.04141167  0.38366133  0.72149523  1
  Co  Co11  1  0.34224967  0.95858833  0.72149523  1
  Co  Co12  1  0.70807833  0.99108367  0.05482857  1
  Co  Co13  1  0.00891633  0.71699467  0.05482857  1
  Co  Co14  1  0.28300533  0.29192167  0.05482857  1
  Co  Co15  1  0.28300533  0.99108367  0.05482857  1
  Co  Co16  1  0.70807833  0.71699467  0.05482857  1
  Co  Co17  1  0.00891633  0.29192167  0.05482857  1
  O  O18  1  0.32493000  0.25374000  0.20531100  1
  O  O19  1  0.74626000  0.07119000  0.20531100  1
  O  O20  1  0.92881000  0.67507000  0.20531100  1
  O  O21  1  0.92881000  0.25374000  0.20531100  1
  O  O22  1  0.32493000  0.07119000  0.20531100  1
  O  O23  1  0.74626000  0.67507000  0.20531100  1
  O  O24  1  0.99159667  0.58707333  0.53864433  1
  O  O25  1  0.41292667  0.40452333  0.53864433  1
  O  O26  1  0.59547667  0.00840333  0.53864433  1
  O  O27  1  0.59547667  0.58707333  0.53864433  1
  O  O28  1  0.99159667  0.40452333  0.53864433  1
  O  O29  1  0.41292667  0.00840333  0.53864433  1
  O  O30  1  0.65826333  0.92040667  0.87197767  1
  O  O31  1  0.07959333  0.73785667  0.87197767  1
  O  O32  1  0.26214333  0.34173667  0.87197767  1
  O  O33  1  0.26214333  0.92040667  0.87197767  1
  O  O34  1  0.65826333  0.73785667  0.87197767  1
  O  O35  1  0.07959333  0.34173667  0.87197767  1
  O  O36  1  0.39203000  0.28514000  0.61758900  1
  O  O37  1  0.71486000  0.10689000  0.61758900  1
  O  O38  1  0.89311000  0.60797000  0.61758900  1
  O  O39  1  0.89311000  0.28514000  0.61758900  1
  O  O40  1  0.39203000  0.10689000  0.61758900  1
  O  O41  1  0.71486000  0.60797000  0.61758900  1
  O  O42  1  0.05869667  0.61847333  0.95092233  1
  O  O43  1  0.38152667  0.44022333  0.95092233  1
  O  O44  1  0.55977667  0.94130333  0.95092233  1
  O  O45  1  0.55977667  0.61847333  0.95092233  1
  O  O46  1  0.05869667  0.44022333  0.95092233  1
  O  O47  1  0.38152667  0.94130333  0.95092233  1
  O  O48  1  0.72536333  0.95180667  0.28425567  1
  O  O49  1  0.04819333  0.77355667  0.28425567  1
  O  O50  1  0.22644333  0.27463667  0.28425567  1
  O  O51  1  0.22644333  0.95180667  0.28425567  1
  O  O52  1  0.72536333  0.77355667  0.28425567  1
  O  O53  1  0.04819333  0.27463667  0.28425567  1
  O  O54  1  0.35093000  0.31244000  0.85148900  1
  O  O55  1  0.68756000  0.03849000  0.85148900  1
  O  O56  1  0.96151000  0.64907000  0.85148900  1
  O  O57  1  0.96151000  0.31244000  0.85148900  1
  O  O58  1  0.35093000  0.03849000  0.85148900  1
  O  O59  1  0.68756000  0.64907000  0.85148900  1
  O  O60  1  0.01759667  0.64577333  0.18482233  1
  O  O61  1  0.35422667  0.37182333  0.18482233  1
  O  O62  1  0.62817667  0.98240333  0.18482233  1
  O  O63  1  0.62817667  0.64577333  0.18482233  1
  O  O64  1  0.01759667  0.37182333  0.18482233  1
  O  O65  1  0.35422667  0.98240333  0.18482233  1
  O  O66  1  0.68426333  0.97910667  0.51815567  1
  O  O67  1  0.02089333  0.70515667  0.51815567  1
  O  O68  1  0.29484333  0.31573667  0.51815567  1
  O  O69  1  0.29484333  0.97910667  0.51815567  1
  O  O70  1  0.68426333  0.70515667  0.51815567  1
  O  O71  1  0.02089333  0.31573667  0.51815567  1
  C  C72  1  0.36904000  0.27816000  0.78888500  1
  C  C73  1  0.72184000  0.09088000  0.78888500  1
  C  C74  1  0.90912000  0.63096000  0.78888500  1
  C  C75  1  0.90912000  0.27816000  0.78888500  1
  C  C76  1  0.36904000  0.09088000  0.78888500  1
  C  C77  1  0.72184000  0.63096000  0.78888500  1
  C  C78  1  0.03570667  0.61149333  0.12221833  1
  C  C79  1  0.38850667  0.42421333  0.12221833  1
  C  C80  1  0.57578667  0.96429333  0.12221833  1
  C  C81  1  0.57578667  0.61149333  0.12221833  1
  C  C82  1  0.03570667  0.42421333  0.12221833  1
  C  C83  1  0.38850667  0.96429333  0.12221833  1
  C  C84  1  0.70237333  0.94482667  0.45555167  1
  C  C85  1  0.05517333  0.75754667  0.45555167  1
  C  C86  1  0.24245333  0.29762667  0.45555167  1
  C  C87  1  0.24245333  0.94482667  0.45555167  1
  C  C88  1  0.70237333  0.75754667  0.45555167  1
  C  C89  1  0.05517333  0.29762667  0.45555167  1
  C  C90  1  0.33934000  0.21686000  0.10941600  1
  C  C91  1  0.78314000  0.12248000  0.10941600  1
  C  C92  1  0.87752000  0.66066000  0.10941600  1
  C  C93  1  0.87752000  0.21686000  0.10941600  1
  C  C94  1  0.33934000  0.12248000  0.10941600  1
  C  C95  1  0.78314000  0.66066000  0.10941600  1
  C  C96  1  0.00600667  0.55019333  0.44274933  1
  C  C97  1  0.44980667  0.45581333  0.44274933  1
  C  C98  1  0.54418667  0.99399333  0.44274933  1
  C  C99  1  0.54418667  0.55019333  0.44274933  1
  C  C100  1  0.00600667  0.45581333  0.44274933  1
  C  C101  1  0.44980667  0.99399333  0.44274933  1
  C  C102  1  0.67267333  0.88352667  0.77608267  1
  C  C103  1  0.11647333  0.78914667  0.77608267  1
  C  C104  1  0.21085333  0.32732667  0.77608267  1
  C  C105  1  0.21085333  0.88352667  0.77608267  1
  C  C106  1  0.67267333  0.78914667  0.77608267  1
  C  C107  1  0.11647333  0.32732667  0.77608267  1
  C  C108  1  0.36114000  0.22846000  0.91178300  1
  C  C109  1  0.77154000  0.13268000  0.91178300  1
  C  C110  1  0.86732000  0.63886000  0.91178300  1
  C  C111  1  0.86732000  0.22846000  0.91178300  1
  C  C112  1  0.36114000  0.13268000  0.91178300  1
  C  C113  1  0.77154000  0.63886000  0.91178300  1
  C  C114  1  0.02780667  0.56179333  0.24511633  1
  C  C115  1  0.43820667  0.46601333  0.24511633  1
  C  C116  1  0.53398667  0.97219333  0.24511633  1
  C  C117  1  0.53398667  0.56179333  0.24511633  1
  C  C118  1  0.02780667  0.46601333  0.24511633  1
  C  C119  1  0.43820667  0.97219333  0.24511633  1
  C  C120  1  0.69447333  0.89512667  0.57844967  1
  C  C121  1  0.10487333  0.79934667  0.57844967  1
  C  C122  1  0.20065333  0.30552667  0.57844967  1
  C  C123  1  0.20065333  0.89512667  0.57844967  1
  C  C124  1  0.69447333  0.79934667  0.57844967  1
  C  C125  1  0.10487333  0.30552667  0.57844967  1
  C  C126  1  0.37116000  0.18557000  0.82080000  1
  C  C127  1  0.81443000  0.18559000  0.82080000  1
  C  C128  1  0.81441000  0.62884000  0.82080000  1
  C  C129  1  0.03782667  0.51890333  0.15413333  1
  C  C130  1  0.48109667  0.51892333  0.15413333  1
  C  C131  1  0.48107667  0.96217333  0.15413333  1
  C  C132  1  0.70449333  0.85223667  0.48746667  1
  C  C133  1  0.14776333  0.85225667  0.48746667  1
  C  C134  1  0.14774333  0.29550667  0.48746667  1
  H  H135  1  0.38557000  0.19283000  0.68933000  1
  H  H136  1  0.80717000  0.19274000  0.68933000  1
  H  H137  1  0.80726000  0.61443000  0.68933000  1
  H  H138  1  0.05223667  0.52616333  0.02266333  1
  H  H139  1  0.47383667  0.52607333  0.02266333  1
  H  H140  1  0.47392667  0.94776333  0.02266333  1
  H  H141  1  0.71890333  0.85949667  0.35599667  1
  H  H142  1  0.14050333  0.85940667  0.35599667  1
  H  H143  1  0.14059333  0.28109667  0.35599667  1
  C  C144  1  0.32786000  0.16397000  0.19720000  1
  C  C145  1  0.83603000  0.16389000  0.19720000  1
  C  C146  1  0.83611000  0.67214000  0.19720000  1
  C  C147  1  0.99452667  0.49730333  0.53053333  1
  C  C148  1  0.50269667  0.49722333  0.53053333  1
  C  C149  1  0.50277667  0.00547333  0.53053333  1
  C  C150  1  0.66119333  0.83063667  0.86386667  1
  C  C151  1  0.16936333  0.83055667  0.86386667  1
  C  C152  1  0.16944333  0.33880667  0.86386667  1
  H  H153  1  0.31087000  0.15543000  0.32583000  1
  H  H154  1  0.84457000  0.15544000  0.32583000  1
  H  H155  1  0.84456000  0.68913000  0.32583000  1
  H  H156  1  0.97753667  0.48876333  0.65916333  1
  H  H157  1  0.51123667  0.48877333  0.65916333  1
  H  H158  1  0.51122667  0.02246333  0.65916333  1
  H  H159  1  0.64420333  0.82209667  0.99249667  1
  H  H160  1  0.17790333  0.82210667  0.99249667  1
  H  H161  1  0.17789333  0.35579667  0.99249667  1
