# generated using pymatgen
data_Sm2H18C36(N2O5)3
_symmetry_space_group_name_H-M   'P 1'
_cell_length_a   25.52731500
_cell_length_b   15.51171400
_cell_length_c   17.10051300
_cell_angle_alpha   90.00000000
_cell_angle_beta   98.29850000
_cell_angle_gamma   90.00000000
_symmetry_Int_Tables_number   1
_chemical_formula_structural   Sm2H18C36(N2O5)3
_chemical_formula_sum   'Sm8 H72 C144 N24 O60'
_cell_volume   6700.43257122
_cell_formula_units_Z   4
loop_
 _symmetry_equiv_pos_site_id
 _symmetry_equiv_pos_as_xyz
  1  'x, y, z'
loop_
 _atom_site_type_symbol
 _atom_site_label
 _atom_site_symmetry_multiplicity
 _atom_site_fract_x
 _atom_site_fract_y
 _atom_site_fract_z
 _atom_site_occupancy
  Sm  Sm0  1  0.25065200  0.17486500  0.31457400  1
  Sm  Sm1  1  0.74934800  0.67486500  0.18542600  1
  Sm  Sm2  1  0.74934800  0.82513500  0.68542600  1
  Sm  Sm3  1  0.25065200  0.32513500  0.81457400  1
  Sm  Sm4  1  0.75045800  0.70547500  0.46318400  1
  Sm  Sm5  1  0.24954200  0.20547500  0.03681600  1
  Sm  Sm6  1  0.24954200  0.29452500  0.53681600  1
  Sm  Sm7  1  0.75045800  0.79452500  0.96318400  1
  O  O8  1  0.30163000  0.16436000  0.44245000  1
  O  O9  1  0.69837000  0.66436000  0.05755000  1
  O  O10  1  0.69837000  0.83564000  0.55755000  1
  O  O11  1  0.30163000  0.33564000  0.94245000  1
  O  O12  1  0.17823000  0.27536000  0.28035000  1
  O  O13  1  0.82177000  0.77536000  0.21965000  1
  O  O14  1  0.82177000  0.72464000  0.71965000  1
  O  O15  1  0.17823000  0.22464000  0.78035000  1
  O  O16  1  0.29913000  0.30506000  0.32915000  1
  O  O17  1  0.70087000  0.80506000  0.17085000  1
  O  O18  1  0.70087000  0.69494000  0.67085000  1
  O  O19  1  0.29913000  0.19494000  0.82915000  1
  O  O20  1  0.18533000  0.11635000  0.38846000  1
  O  O21  1  0.81467000  0.61635000  0.11154000  1
  O  O22  1  0.81467000  0.88365000  0.61154000  1
  O  O23  1  0.18533000  0.38365000  0.88846000  1
  O  O24  1  0.80187000  0.61806000  0.29715000  1
  O  O25  1  0.19813000  0.11806000  0.20285000  1
  O  O26  1  0.19813000  0.38194000  0.70285000  1
  O  O27  1  0.80187000  0.88194000  0.79715000  1
  O  O28  1  0.66793000  0.64817000  0.23855000  1
  O  O29  1  0.33207000  0.14817000  0.26145000  1
  O  O30  1  0.33207000  0.35183000  0.76145000  1
  O  O31  1  0.66793000  0.85183000  0.73855000  1
  O  O36  1  0.83197000  0.67776000  0.41245000  1
  O  O37  1  0.16803000  0.17776000  0.08755000  1
  O  O38  1  0.16803000  0.32224000  0.58755000  1
  O  O39  1  0.83197000  0.82224000  0.91245000  1
  O  O40  1  0.20083000  0.30455000  0.40695000  1
  O  O41  1  0.79917000  0.80455000  0.09305000  1
  O  O42  1  0.79917000  0.69545000  0.59305000  1
  O  O43  1  0.20083000  0.19545000  0.90695000  1
  O  O44  1  0.19963000  0.16556000  0.51315000  1
  O  O45  1  0.80037000  0.66556000  0.98685000  1
  O  O46  1  0.80037000  0.83444000  0.48685000  1
  O  O47  1  0.19963000  0.33444000  0.01315000  1
  O  O48  1  0.32543000  0.19936000  0.56406000  1
  O  O49  1  0.67457000  0.69936000  0.93594000  1
  O  O50  1  0.67457000  0.80064000  0.43594000  1
  O  O51  1  0.32543000  0.30064000  0.06406000  1
  O  O60  1  0.31053000  0.35536000  0.45425000  1
  O  O61  1  0.68947000  0.85536000  0.04575000  1
  O  O62  1  0.68947000  0.64464000  0.54575000  1
  O  O63  1  0.31053000  0.14464000  0.95425000  1
  O  O64  1  0.69103000  0.63957000  0.36456000  1
  O  O65  1  0.30897000  0.13957000  0.13544000  1
  O  O66  1  0.30897000  0.36043000  0.63544000  1
  O  O67  1  0.69103000  0.86043000  0.86456000  1
  C  C68  1  0.11913000  0.08726000  0.46996000  1
  C  C69  1  0.88087000  0.58726000  0.03004000  1
  C  C70  1  0.88087000  0.91274000  0.53004000  1
  C  C71  1  0.11913000  0.41274000  0.96996000  1
  C  C72  1  0.09643000  0.02126000  0.42145000  1
  C  C73  1  0.90357000  0.52126000  0.07855000  1
  C  C74  1  0.90357000  0.97874000  0.57855000  1
  C  C75  1  0.09643000  0.47874000  0.92145000  1
  H  H76  1  0.11360000  0.00060000  0.38070000  1
  H  H77  1  0.88640000  0.50060000  0.11930000  1
  H  H78  1  0.88640000  0.00000000  0.61930000  1
  H  H79  1  0.11360000  0.49940000  0.88070000  1
  N  N80  1  0.04823000  0.98595000  0.43375000  1
  N  N81  1  0.95177000  0.48595000  0.06625000  1
  N  N82  1  0.95177000  0.01405000  0.56625000  1
  N  N83  1  0.04823000  0.51405000  0.93375000  1
  C  C84  1  0.02262000  0.01686000  0.49455000  1
  C  C85  1  0.97738000  0.51686000  0.00545000  1
  C  C86  1  0.97738000  0.98314000  0.50545000  1
  C  C87  1  0.02262000  0.48314000  0.99455000  1
  C  C88  1  0.04523000  0.08286000  0.54305000  1
  C  C89  1  0.95477000  0.58286000  0.95695000  1
  C  C90  1  0.95477000  0.91714000  0.45695000  1
  C  C91  1  0.04523000  0.41714000  0.04305000  1
  H  H92  1  0.02810000  0.10340000  0.58370000  1
  H  H93  1  0.97190000  0.60340000  0.91630000  1
  H  H94  1  0.97190000  0.89660000  0.41630000  1
  H  H95  1  0.02810000  0.39660000  0.08370000  1
  C  C96  1  0.09354000  0.11806000  0.53075000  1
  C  C97  1  0.90646000  0.61806000  0.96925000  1
  C  C98  1  0.90646000  0.88194000  0.46925000  1
  C  C99  1  0.09354000  0.38194000  0.03075000  1
  H  H100  1  0.10860000  0.16220000  0.56320000  1
  H  H101  1  0.89140000  0.66220000  0.93680000  1
  H  H102  1  0.89140000  0.83780000  0.43680000  1
  H  H103  1  0.10860000  0.33780000  0.06320000  1
  C  C104  1  0.17266000  0.12811000  0.45791100  1
  C  C105  1  0.82734000  0.62811000  0.04208900  1
  C  C106  1  0.82734000  0.87189000  0.54208900  1
  C  C107  1  0.17266000  0.37189000  0.95791100  1
  C  C108  1  0.38053000  0.11126000  0.50416000  1
  C  C109  1  0.61947000  0.61126000  0.00000000  1
  C  C110  1  0.61947000  0.88874000  0.49584000  1
  C  C111  1  0.38053000  0.38874000  0.00416000  1
  C  C112  1  0.39043000  0.06877000  0.43635000  1
  C  C113  1  0.60957000  0.56877000  0.06365000  1
  C  C114  1  0.60957000  0.93123000  0.56365000  1
  C  C115  1  0.39043000  0.43123000  0.93635000  1
  H  H116  1  0.36530000  0.06930000  0.39120000  1
  H  H117  1  0.63470000  0.56930000  0.10880000  1
  H  H118  1  0.63470000  0.93070000  0.60880000  1
  H  H119  1  0.36530000  0.43070000  0.89120000  1
  N  N120  1  0.43804000  0.02516000  0.43584000  1
  N  N121  1  0.56196000  0.52516000  0.06416000  1
  N  N122  1  0.56196000  0.97484000  0.56416000  1
  N  N123  1  0.43804000  0.47484000  0.93584000  1
  C  C124  1  0.47563000  0.02425000  0.50316000  1
  C  C125  1  0.52437000  0.52425000  0.00000000  1
  C  C126  1  0.52437000  0.97575000  0.49684000  1
  C  C127  1  0.47563000  0.47575000  0.00316000  1
  C  C128  1  0.46573000  0.06677000  0.57104000  1
  C  C129  1  0.53427000  0.56677000  0.92896000  1
  C  C130  1  0.53427000  0.93323000  0.42896000  1
  C  C131  1  0.46573000  0.43323000  0.07104000  1
  H  H132  1  0.49090000  0.06610000  0.61610000  1
  H  H133  1  0.50910000  0.56610000  0.88390000  1
  H  H134  1  0.50910000  0.93390000  0.38390000  1
  H  H135  1  0.49090000  0.43390000  0.11610000  1
  C  C136  1  0.41824000  0.11026000  0.57154000  1
  C  C137  1  0.58176000  0.61026000  0.92846000  1
  C  C138  1  0.58176000  0.88974000  0.42846000  1
  C  C139  1  0.41824000  0.38974000  0.07154000  1
  H  H140  1  0.41160000  0.13870000  0.61700000  1
  H  H141  1  0.58840000  0.63870000  0.88300000  1
  H  H142  1  0.58840000  0.86130000  0.38300000  1
  H  H143  1  0.41160000  0.36130000  0.11700000  1
  C  C144  1  0.33405000  0.16091000  0.50468000  1
  C  C145  1  0.66595000  0.66091000  0.00000000  1
  C  C146  1  0.66595000  0.83909000  0.49532000  1
  C  C147  1  0.33405000  0.33909000  0.00468000  1
  C  C148  1  0.12413000  0.37005000  0.34126000  1
  C  C149  1  0.87587000  0.87005000  0.15874000  1
  C  C150  1  0.87587000  0.62995000  0.65874000  1
  C  C151  1  0.12413000  0.12995000  0.84126000  1
  C  C152  1  0.11613000  0.41716000  0.40774000  1
  C  C153  1  0.88387000  0.91716000  0.09226000  1
  C  C154  1  0.88387000  0.58284000  0.59226000  1
  C  C155  1  0.11613000  0.08284000  0.90774000  1
  H  H156  1  0.14060000  0.41420000  0.45340000  1
  H  H157  1  0.85940000  0.91420000  0.04660000  1
  H  H158  1  0.85940000  0.58580000  0.54660000  1
  H  H159  1  0.14060000  0.08580000  0.95340000  1
  C  C160  1  0.03463000  0.47306000  0.33756000  1
  C  C161  1  0.96537000  0.97306000  0.16244000  1
  C  C162  1  0.96537000  0.52694000  0.66244000  1
  C  C163  1  0.03463000  0.02694000  0.83756000  1
  C  C164  1  0.04263000  0.42597000  0.27115000  1
  C  C165  1  0.95737000  0.92597000  0.22885000  1
  C  C166  1  0.95737000  0.57403000  0.72885000  1
  C  C167  1  0.04263000  0.07403000  0.77115000  1
  H  H168  1  0.01800000  0.42880000  0.22540000  1
  H  H169  1  0.98200000  0.92880000  0.27460000  1
  H  H170  1  0.98200000  0.57120000  0.77460000  1
  H  H171  1  0.01800000  0.07120000  0.72540000  1
  C  C172  1  0.08734000  0.37446000  0.27295000  1
  C  C173  1  0.91266000  0.87446000  0.22705000  1
  C  C174  1  0.91266000  0.62554000  0.72705000  1
  C  C175  1  0.08734000  0.12554000  0.77295000  1
  H  H176  1  0.09270000  0.34290000  0.22850000  1
  H  H177  1  0.90730000  0.84290000  0.27150000  1
  H  H178  1  0.90730000  0.65710000  0.77150000  1
  H  H179  1  0.09270000  0.15710000  0.72850000  1
  N  N180  1  0.07134000  0.46866000  0.40585000  1
  N  N181  1  0.92866000  0.96866000  0.09415000  1
  N  N182  1  0.92866000  0.53134000  0.59415000  1
  N  N183  1  0.07134000  0.03134000  0.90585000  1
  C  C184  1  0.17105000  0.31341000  0.34099000  1
  C  C185  1  0.82895000  0.81341000  0.15901000  1
  C  C186  1  0.82895000  0.68659000  0.65901000  1
  C  C187  1  0.17105000  0.18659000  0.84099000  1
  C  C188  1  0.88957000  0.59856000  0.34316000  1
  C  C189  1  0.11043000  0.09856000  0.15684000  1
  C  C190  1  0.11043000  0.40144000  0.65684000  1
  C  C191  1  0.88957000  0.90144000  0.84316000  1
  C  C192  1  0.93066000  0.61016000  0.40505000  1
  C  C193  1  0.06934000  0.11016000  0.09495000  1
  C  C194  1  0.06934000  0.38984000  0.59495000  1
  C  C195  1  0.93066000  0.88984000  0.90505000  1
  H  H196  1  0.92570000  0.64410000  0.44800000  1
  H  H197  1  0.07430000  0.14410000  0.05200000  1
  H  H198  1  0.07430000  0.35590000  0.55200000  1
  H  H199  1  0.92570000  0.85590000  0.94800000  1
  C  C200  1  0.98697000  0.51996000  0.33816000  1
  C  C201  1  0.01303000  0.01996000  0.16184000  1
  C  C202  1  0.01303000  0.48004000  0.66184000  1
  C  C203  1  0.98697000  0.98004000  0.83816000  1
  C  C204  1  0.94586000  0.50836000  0.27635000  1
  C  C205  1  0.05414000  0.00836000  0.22365000  1
  C  C206  1  0.05414000  0.49164000  0.72365000  1
  C  C207  1  0.94586000  0.99164000  0.77635000  1
  H  H208  1  0.95090000  0.47430000  0.23320000  1
  H  H209  1  0.04910000  0.97430000  0.26680000  1
  H  H210  1  0.04910000  0.52570000  0.76680000  1
  H  H211  1  0.95090000  0.02570000  0.73320000  1
  C  C212  1  0.89717000  0.54767000  0.27885000  1
  C  C213  1  0.10283000  0.04767000  0.22115000  1
  C  C214  1  0.10283000  0.45233000  0.72115000  1
  C  C215  1  0.89717000  0.95233000  0.77885000  1
  H  H216  1  0.86970000  0.53980000  0.23740000  1
  H  H217  1  0.13030000  0.03980000  0.26260000  1
  H  H218  1  0.13030000  0.46020000  0.76260000  1
  H  H219  1  0.86970000  0.96020000  0.73740000  1
  N  N220  1  0.97937000  0.57087000  0.40255000  1
  N  N221  1  0.02063000  0.07087000  0.09745000  1
  N  N222  1  0.02063000  0.42913000  0.59745000  1
  N  N223  1  0.97937000  0.92913000  0.90255000  1
  C  C224  1  0.83786000  0.63699000  0.35289000  1
  C  C225  1  0.16214000  0.13699000  0.14711000  1
  C  C226  1  0.16214000  0.36301000  0.64711000  1
  C  C227  1  0.83786000  0.86301000  0.85289000  1
  C  C228  1  0.60553000  0.59707000  0.31466000  1
  C  C229  1  0.39447000  0.09707000  0.18534000  1
  C  C230  1  0.39447000  0.40293000  0.68534000  1
  C  C231  1  0.60553000  0.90293000  0.81466000  1
  C  C232  1  0.59355000  0.58171200  0.39015000  1
  C  C233  1  0.40645000  0.08171200  0.10985000  1
  C  C234  1  0.40645000  0.41828800  0.60985000  1
  C  C235  1  0.59355000  0.91828800  0.89015000  1
  H  H236  1  0.61820000  0.59460000  0.43410000  1
  H  H237  1  0.38180000  0.09460000  0.06590000  1
  H  H238  1  0.38180000  0.40540000  0.56590000  1
  H  H239  1  0.61820000  0.90540000  0.93410000  1
  N  N240  1  0.54465000  0.54721200  0.39996000  1
  N  N241  1  0.45535000  0.04721200  0.10004000  1
  N  N242  1  0.45535000  0.45278800  0.60004000  1
  N  N243  1  0.54465000  0.95278800  0.89996000  1
  C  C244  1  0.50784000  0.52807000  0.33428000  1
  C  C245  1  0.49216000  0.02807000  0.16572000  1
  C  C246  1  0.49216000  0.47193000  0.66572000  1
  C  C247  1  0.50784000  0.97193000  0.83428000  1
  C  C248  1  0.51984000  0.54331200  0.25876000  1
  C  C249  1  0.48016000  0.04331200  0.24124000  1
  C  C250  1  0.48016000  0.45668800  0.74124000  1
  C  C251  1  0.51984000  0.95668800  0.75876000  1
  H  H252  1  0.49510000  0.53040000  0.21470000  1
  H  H253  1  0.50490000  0.03040000  0.28530000  1
  H  H254  1  0.50490000  0.46960000  0.78530000  1
  H  H255  1  0.49510000  0.96960000  0.71470000  1
  C  C256  1  0.56875000  0.57781200  0.24895000  1
  C  C257  1  0.43125000  0.07781200  0.25105000  1
  C  C258  1  0.43125000  0.42218800  0.75105000  1
  C  C259  1  0.56875000  0.92218800  0.74895000  1
  H  H260  1  0.57670000  0.58800000  0.19840000  1
  H  H261  1  0.42330000  0.08800000  0.30160000  1
  H  H262  1  0.42330000  0.41200000  0.80160000  1
  H  H263  1  0.57670000  0.91200000  0.69840000  1
  C  C264  1  0.65835000  0.63039000  0.30479000  1
  C  C265  1  0.34165000  0.13039000  0.19521000  1
  C  C266  1  0.34165000  0.36961000  0.69521000  1
  C  C267  1  0.65835000  0.86961000  0.80479000  1
  C  C268  1  0.36993000  0.40026000  0.37036000  1
  C  C269  1  0.63007000  0.90026000  0.12964000  1
  C  C270  1  0.63007000  0.59974000  0.62964000  1
  C  C271  1  0.36993000  0.09974000  0.87036000  1
  C  C272  1  0.39333000  0.37996000  0.30415000  1
  C  C273  1  0.60667000  0.87996000  0.19585000  1
  C  C274  1  0.60667000  0.62004000  0.69585000  1
  C  C275  1  0.39333000  0.12004000  0.80415000  1
  H  H276  1  0.37850000  0.33760000  0.26920000  1
  H  H277  1  0.62150000  0.83760000  0.23080000  1
  H  H278  1  0.62150000  0.66240000  0.73080000  1
  H  H279  1  0.37850000  0.16240000  0.76920000  1
  C  C280  1  0.43893000  0.42277000  0.29015000  1
  C  C281  1  0.56107000  0.92277000  0.20985000  1
  C  C282  1  0.56107000  0.57723000  0.70985000  1
  C  C283  1  0.43893000  0.07723000  0.79015000  1
  H  H284  1  0.45450000  0.40910000  0.24580000  1
  H  H285  1  0.54550000  0.90910000  0.25420000  1
  H  H286  1  0.54550000  0.59090000  0.75420000  1
  H  H287  1  0.45450000  0.09090000  0.74580000  1
  C  C288  1  0.46103000  0.48597000  0.34236000  1
  C  C289  1  0.53897000  0.98597000  0.15764000  1
  C  C290  1  0.53897000  0.51403000  0.65764000  1
  C  C291  1  0.46103000  0.01403000  0.84236000  1
  N  N292  1  0.43773000  0.50626000  0.40856000  1
  N  N293  1  0.56227000  0.00626000  0.09144000  1
  N  N294  1  0.56227000  0.49374000  0.59144000  1
  N  N295  1  0.43773000  0.99374000  0.90856000  1
  C  C296  1  0.39214000  0.46337000  0.42265000  1
  C  C297  1  0.60786000  0.96337000  0.07735000  1
  C  C298  1  0.60786000  0.53663000  0.57735000  1
  C  C299  1  0.39214000  0.03663000  0.92265000  1
  H  H300  1  0.37650000  0.47690000  0.46690000  1
  H  H301  1  0.62350000  0.97690000  0.03310000  1
  H  H302  1  0.62350000  0.52310000  0.53310000  1
  H  H303  1  0.37650000  0.02310000  0.96690000  1
  C  C304  1  0.32065000  0.34721000  0.38479000  1
  C  C305  1  0.67935000  0.84721000  0.11521000  1
  C  C306  1  0.67935000  0.65279000  0.61521000  1
  C  C307  1  0.32065000  0.15279000  0.88479000  1
