# generated using pymatgen
data_NiH25C17N5O8
_symmetry_space_group_name_H-M   'P 1'
_cell_length_a   9.00260000
_cell_length_b   11.54570000
_cell_length_c   11.81970000
_cell_angle_alpha   102.89570000
_cell_angle_beta   112.01160000
_cell_angle_gamma   104.47770000
_symmetry_Int_Tables_number   1
_chemical_formula_structural   NiH25C17N5O8
_chemical_formula_sum   'Ni2 H50 C34 N10 O16'
_cell_volume   1031.83749608
_cell_formula_units_Z   2
loop_
 _symmetry_equiv_pos_site_id
 _symmetry_equiv_pos_as_xyz
  1  'x, y, z'
loop_
 _atom_site_type_symbol
 _atom_site_label
 _atom_site_symmetry_multiplicity
 _atom_site_fract_x
 _atom_site_fract_y
 _atom_site_fract_z
 _atom_site_occupancy
  C  C0  1  0.28375000  0.57934000  0.10264000  1
  C  C1  1  0.27575000  0.67454000  0.21024000  1
  C  C2  1  0.39415000  0.79594000  0.27354000  1
  H  H3  1  0.48540000  0.82200000  0.25430000  1
  C  C4  1  0.37665000  0.88134000  0.36844000  1
  H  H5  1  0.45620000  0.96470000  0.41380000  1
  C  C6  1  0.23865000  0.83844000  0.39254000  1
  C  C7  1  0.12595000  0.71224000  0.32524000  1
  H  H8  1  0.03510000  0.68300000  0.34410000  1
  C  C9  1  0.20455000  0.92964000  0.48664000  1
  C  C10  1  0.66095000  0.31704000  0.11014000  1
  C  C11  1  0.65785000  0.22504000  0.99374000  1
  C  C12  1  0.52375000  0.11184000  0.91444000  1
  H  H13  1  0.42860000  0.08760000  0.92990000  1
  C  C14  1  0.53055000  0.03304000  0.81034000  1
  H  H15  1  0.44070000  0.95500000  0.75600000  1
  C  C16  1  0.67245000  0.07194000  0.78854000  1
  C  C17  1  0.80265000  0.19064000  0.87244000  1
  H  H18  1  0.89600000  0.21940000  0.85620000  1
  C  C19  1  0.69275000  0.98706000  0.68224000  1
  C  C20  1  0.26125000  0.35064000  0.25844000  1
  H  H21  1  0.33230000  0.38630000  0.22500000  1
  C  C22  1  0.16845000  0.24764000  0.36624000  1
  H  H23  1  0.15950000  0.19970000  0.41870000  1
  C  C24  1  0.05126000  0.29364000  0.30244000  1
  H  H25  1  0.94680000  0.28330000  0.30510000  1
  C  C26  1  0.46595000  0.26574000  0.39414000  1
  H  H27  1  0.52570000  0.28000000  0.34220000  1
  H  H28  1  0.44200000  0.17790000  0.39050000  1
  C  C29  1  0.88015000  0.53404000  0.87734000  1
  H  H30  1  0.97720000  0.52660000  0.87040000  1
  C  C31  1  0.68786000  0.53444000  0.94424000  1
  H  H32  1  0.62810000  0.52780000  0.99330000  1
  C  C33  1  0.63666000  0.56274000  0.83424000  1
  H  H34  1  0.53690000  0.57860000  0.79430000  1
  C  C35  1  0.76185000  0.58704000  0.67684000  1
  H  H36  1  0.86570000  0.58180000  0.67270000  1
  H  H37  1  0.76480000  0.67300000  0.68400000  1
  C  C38  1  0.60675000  0.49334000  0.55194000  1
  H  H39  1  0.50430000  0.50720000  0.55080000  1
  H  H40  1  0.61910000  0.51030000  0.47860000  1
  C  C41  1  0.58125000  0.35524000  0.53454000  1
  H  H42  1  0.53080000  0.32990000  0.58890000  1
  H  H43  1  0.69270000  0.34670000  0.56380000  1
  C  C44  1  0.07835000  0.00014000  0.87424000  1
  H  H45  1  0.04600000  0.07030000  0.88920000  1
  C  C46  1  0.12735000  0.84016000  0.77954000  1
  H  H47  1  0.13310000  0.77980000  0.71610000  1
  C  C48  1  0.17626000  0.84706000  0.90765000  1
  H  H49  1  0.22270000  0.79460000  0.94700000  1
  C  C50  1  0.16255000  0.99076000  0.09644000  1
  H  H51  1  0.18250000  0.08130000  0.12400000  1
  H  H52  1  0.26370000  0.97970000  0.15390000  1
  C  C53  1  0.00755000  0.91896000  0.11004000  1
  H  H54  1  0.98680000  0.82840000  0.08110000  1
  H  H55  1  0.03420000  0.94650000  0.20150000  1
  C  C56  1  0.84535000  0.93856000  0.03374000  1
  H  H57  1  0.81140000  0.90230000  0.94140000  1
  H  H58  1  0.86970000  0.02960000  0.05540000  1
  C  C59  1  0.75785000  0.06934000  0.37284000  1
  H  H60  1  0.75280000  0.13520000  0.43130000  1
  C  C61  1  0.69265000  0.04394000  0.24294000  1
  H  H62  1  0.63610000  0.08780000  0.19610000  1
  C  C63  1  0.81015000  0.90706000  0.29564000  1
  H  H64  1  0.84700000  0.83870000  0.28810000  1
  C  C65  1  0.69435000  0.87876000  0.05884000  1
  H  H66  1  0.59180000  0.88710000  0.00000000  1
  H  H67  1  0.67240000  0.78840000  0.04070000  1
  N  N68  1  0.10914000  0.35883000  0.23214000  1
  N  N69  1  0.30204000  0.28543000  0.33823000  1
  N  N70  1  0.84225000  0.51673000  0.97283000  1
  N  N71  1  0.76074000  0.56343000  0.79273000  1
  N  N72  1  0.14124000  0.94827000  0.96423000  1
  N  N73  1  0.06864000  0.93747000  0.76123000  1
  N  N74  1  0.83354000  0.98277000  0.40663000  1
  N  N75  1  0.72734000  0.93917000  0.19423000  1
  N  N76  1  0.14134000  0.63073000  0.23483000  1
  N  N77  1  0.79864000  0.26433000  0.97453000  1
  Ni  Ni78  1  0.95160600  0.96219600  0.58452500  1
  Ni  Ni79  1  0.97597600  0.44362500  0.10878500  1
  O  O80  1  0.16293000  0.46932000  0.04453000  1
  O  O81  1  0.40694000  0.61463000  0.07643000  1
  O  O82  1  0.29124000  0.04703000  0.52573000  1
  O  O83  1  0.09093000  0.87803000  0.51563000  1
  O  O84  1  0.79503000  0.41992000  0.17723000  1
  O  O85  1  0.53384000  0.28683000  0.13153000  1
  O  O86  1  0.60034000  0.87057000  0.63333000  1
  O  O87  1  0.80893000  0.04253000  0.65553000  1
