# generated using pymatgen
data_LaH17C27O7
_symmetry_space_group_name_H-M   'P 1'
_cell_length_a   28.76440000
_cell_length_b   28.76440000
_cell_length_c   12.56330000
_cell_angle_alpha   90.00000000
_cell_angle_beta   90.00000000
_cell_angle_gamma   120.00000000
_symmetry_Int_Tables_number   1
_chemical_formula_structural   LaH17C27O7
_chemical_formula_sum   'La9 H153 C243 O63'
_cell_volume   9002.12421167
_cell_formula_units_Z   9
loop_
 _symmetry_equiv_pos_site_id
 _symmetry_equiv_pos_as_xyz
  1  'x, y, z'
loop_
 _atom_site_type_symbol
 _atom_site_label
 _atom_site_symmetry_multiplicity
 _atom_site_fract_x
 _atom_site_fract_y
 _atom_site_fract_z
 _atom_site_occupancy
  C  C0  1  0.08822000  0.35542000  0.21354000  1
  C  C1  1  0.64458000  0.73280000  0.21354000  1
  C  C2  1  0.26720000  0.91178000  0.21354000  1
  C  C3  1  0.35542000  0.08822000  0.78646000  1
  C  C4  1  0.73280000  0.64458000  0.78646000  1
  C  C5  1  0.91178000  0.26720000  0.78646000  1
  C  C6  1  0.75488667  0.68875333  0.54687333  1
  C  C7  1  0.31124667  0.06613333  0.54687333  1
  C  C8  1  0.93386667  0.24511333  0.54687333  1
  C  C9  1  0.02208667  0.42155333  0.11979333  1
  C  C10  1  0.39946667  0.97791333  0.11979333  1
  C  C11  1  0.57844667  0.60053333  0.11979333  1
  C  C12  1  0.42155333  0.02208667  0.88020667  1
  C  C13  1  0.97791333  0.39946667  0.88020667  1
  C  C14  1  0.60053333  0.57844667  0.88020667  1
  C  C15  1  0.68875333  0.75488667  0.45312667  1
  C  C16  1  0.06613333  0.31124667  0.45312667  1
  C  C17  1  0.24511333  0.93386667  0.45312667  1
  C  C18  1  0.13942000  0.35502000  0.19915000  1
  C  C19  1  0.64498000  0.78440000  0.19915000  1
  C  C20  1  0.21560000  0.86058000  0.19915000  1
  C  C21  1  0.35502000  0.13942000  0.80085000  1
  C  C22  1  0.78440000  0.64498000  0.80085000  1
  C  C23  1  0.86058000  0.21560000  0.80085000  1
  C  C24  1  0.80608667  0.68835333  0.53248333  1
  C  C25  1  0.31164667  0.11773333  0.53248333  1
  C  C26  1  0.88226667  0.19391333  0.53248333  1
  C  C27  1  0.02168667  0.47275333  0.13418333  1
  C  C28  1  0.45106667  0.97831333  0.13418333  1
  C  C29  1  0.52724667  0.54893333  0.13418333  1
  C  C30  1  0.47275333  0.02168667  0.86581667  1
  C  C31  1  0.97831333  0.45106667  0.86581667  1
  C  C32  1  0.54893333  0.52724667  0.86581667  1
  C  C33  1  0.68835333  0.80608667  0.46751667  1
  C  C34  1  0.11773333  0.31164667  0.46751667  1
  C  C35  1  0.19391333  0.88226667  0.46751667  1
  C  C36  1  0.18502000  0.39333000  0.25145000  1
  C  C37  1  0.60667000  0.79169000  0.25145000  1
  C  C38  1  0.20831000  0.81498000  0.25145000  1
  C  C39  1  0.39333000  0.18502000  0.74855000  1
  C  C40  1  0.79169000  0.60667000  0.74855000  1
  C  C41  1  0.81498000  0.20831000  0.74855000  1
  C  C42  1  0.85168667  0.72666333  0.58478333  1
  C  C43  1  0.27333667  0.12502333  0.58478333  1
  C  C44  1  0.87497667  0.14831333  0.58478333  1
  C  C45  1  0.05999667  0.51835333  0.08188333  1
  C  C46  1  0.45835667  0.94000333  0.08188333  1
  C  C47  1  0.48164667  0.54164333  0.08188333  1
  C  C48  1  0.51835333  0.05999667  0.91811667  1
  C  C49  1  0.94000333  0.45835667  0.91811667  1
  C  C50  1  0.54164333  0.48164667  0.91811667  1
  C  C51  1  0.72666333  0.85168667  0.41521667  1
  C  C52  1  0.12502333  0.27333667  0.41521667  1
  C  C53  1  0.14831333  0.87497667  0.41521667  1
  H  H54  1  0.18407000  0.42023000  0.29243000  1
  H  H55  1  0.57977000  0.76384000  0.29243000  1
  H  H56  1  0.23616000  0.81593000  0.29243000  1
  H  H57  1  0.42023000  0.18407000  0.70757000  1
  H  H58  1  0.76384000  0.57977000  0.70757000  1
  H  H59  1  0.81593000  0.23616000  0.70757000  1
  H  H60  1  0.85073667  0.75356333  0.62576333  1
  H  H61  1  0.24643667  0.09717333  0.62576333  1
  H  H62  1  0.90282667  0.14926333  0.62576333  1
  H  H63  1  0.08689667  0.51740333  0.04090333  1
  H  H64  1  0.43050667  0.91310333  0.04090333  1
  H  H65  1  0.48259667  0.56949333  0.04090333  1
  H  H66  1  0.51740333  0.08689667  0.95909667  1
  H  H67  1  0.91310333  0.43050667  0.95909667  1
  H  H68  1  0.56949333  0.48259667  0.95909667  1
  H  H69  1  0.75356333  0.85073667  0.37423667  1
  H  H70  1  0.09717333  0.24643667  0.37423667  1
  H  H71  1  0.14926333  0.90282667  0.37423667  1
  C  C72  1  0.23192000  0.39102000  0.24205000  1
  C  C73  1  0.60898000  0.84090000  0.24205000  1
  C  C74  1  0.15910000  0.76808000  0.24205000  1
  C  C75  1  0.39102000  0.23192000  0.75795000  1
  C  C76  1  0.84090000  0.60898000  0.75795000  1
  C  C77  1  0.76808000  0.15910000  0.75795000  1
  C  C78  1  0.89858667  0.72435333  0.57538333  1
  C  C79  1  0.27564667  0.17423333  0.57538333  1
  C  C80  1  0.82576667  0.10141333  0.57538333  1
  C  C81  1  0.05768667  0.56525333  0.09128333  1
  C  C82  1  0.50756667  0.94231333  0.09128333  1
  C  C83  1  0.43474667  0.49243333  0.09128333  1
  C  C84  1  0.56525333  0.05768667  0.90871667  1
  C  C85  1  0.94231333  0.50756667  0.90871667  1
  C  C86  1  0.49243333  0.43474667  0.90871667  1
  C  C87  1  0.72435333  0.89858667  0.42461667  1
  C  C88  1  0.17423333  0.27564667  0.42461667  1
  C  C89  1  0.10141333  0.82576667  0.42461667  1
  H  H90  1  0.26327000  0.41753000  0.27523000  1
  H  H91  1  0.58247000  0.84574000  0.27523000  1
  H  H92  1  0.15426000  0.73673000  0.27523000  1
  H  H93  1  0.41753000  0.26327000  0.72477000  1
  H  H94  1  0.84574000  0.58247000  0.72477000  1
  H  H95  1  0.73673000  0.15426000  0.72477000  1
  H  H96  1  0.92993667  0.75086333  0.60856333  1
  H  H97  1  0.24913667  0.17907333  0.60856333  1
  H  H98  1  0.82092667  0.07006333  0.60856333  1
  H  H99  1  0.08419667  0.59660333  0.05810333  1
  H  H100  1  0.51240667  0.91580333  0.05810333  1
  H  H101  1  0.40339667  0.48759333  0.05810333  1
  H  H102  1  0.59660333  0.08419667  0.94189667  1
  H  H103  1  0.91580333  0.51240667  0.94189667  1
  H  H104  1  0.48759333  0.40339667  0.94189667  1
  H  H105  1  0.75086333  0.92993667  0.39143667  1
  H  H106  1  0.17907333  0.24913667  0.39143667  1
  H  H107  1  0.07006333  0.82092667  0.39143667  1
  C  C108  1  0.23352000  0.35042000  0.18425000  1
  C  C109  1  0.64958000  0.88310000  0.18425000  1
  C  C110  1  0.11690000  0.76648000  0.18425000  1
  C  C111  1  0.35042000  0.23352000  0.81575000  1
  C  C112  1  0.88310000  0.64958000  0.81575000  1
  C  C113  1  0.76648000  0.11690000  0.81575000  1
  C  C114  1  0.90018667  0.68375333  0.51758333  1
  C  C115  1  0.31624667  0.21643333  0.51758333  1
  C  C116  1  0.78356667  0.09981333  0.51758333  1
  C  C117  1  0.01708667  0.56685333  0.14908333  1
  C  C118  1  0.54976667  0.98291333  0.14908333  1
  C  C119  1  0.43314667  0.45023333  0.14908333  1
  C  C120  1  0.56685333  0.01708667  0.85091667  1
  C  C121  1  0.98291333  0.54976667  0.85091667  1
  C  C122  1  0.45023333  0.43314667  0.85091667  1
  C  C123  1  0.68375333  0.90018667  0.48241667  1
  C  C124  1  0.21643333  0.31624667  0.48241667  1
  C  C125  1  0.09981333  0.78356667  0.48241667  1
  C  C126  1  0.18843000  0.31262000  0.13125000  1
  C  C127  1  0.68738000  0.87581000  0.13125000  1
  C  C128  1  0.12419000  0.81157000  0.13125000  1
  C  C129  1  0.31262000  0.18843000  0.86875000  1
  C  C130  1  0.87581000  0.68738000  0.86875000  1
  C  C131  1  0.81157000  0.12419000  0.86875000  1
  C  C132  1  0.85509667  0.64595333  0.46458333  1
  C  C133  1  0.35404667  0.20914333  0.46458333  1
  C  C134  1  0.79085667  0.14490333  0.46458333  1
  C  C135  1  0.97928667  0.52176333  0.20208333  1
  C  C136  1  0.54247667  0.02071333  0.20208333  1
  C  C137  1  0.47823667  0.45752333  0.20208333  1
  C  C138  1  0.52176333  0.97928667  0.79791667  1
  C  C139  1  0.02071333  0.54247667  0.79791667  1
  C  C140  1  0.45752333  0.47823667  0.79791667  1
  C  C141  1  0.64595333  0.85509667  0.53541667  1
  C  C142  1  0.20914333  0.35404667  0.53541667  1
  C  C143  1  0.14490333  0.79085667  0.53541667  1
  H  H144  1  0.18967000  0.28663000  0.08823000  1
  H  H145  1  0.71337000  0.90304000  0.08823000  1
  H  H146  1  0.09696000  0.81033000  0.08823000  1
  H  H147  1  0.28663000  0.18967000  0.91177000  1
  H  H148  1  0.90304000  0.71337000  0.91177000  1
  H  H149  1  0.81033000  0.09696000  0.91177000  1
  H  H150  1  0.85633667  0.61996333  0.42156333  1
  H  H151  1  0.38003667  0.23637333  0.42156333  1
  H  H152  1  0.76362667  0.14366333  0.42156333  1
  H  H153  1  0.95329667  0.52300333  0.24510333  1
  H  H154  1  0.56970667  0.04670333  0.24510333  1
  H  H155  1  0.47699667  0.43029333  0.24510333  1
  H  H156  1  0.52300333  0.95329667  0.75489667  1
  H  H157  1  0.04670333  0.56970667  0.75489667  1
  H  H158  1  0.43029333  0.47699667  0.75489667  1
  H  H159  1  0.61996333  0.85633667  0.57843667  1
  H  H160  1  0.23637333  0.38003667  0.57843667  1
  H  H161  1  0.14366333  0.76362667  0.57843667  1
  C  C162  1  0.14022000  0.31382000  0.14255000  1
  C  C163  1  0.68618000  0.82640000  0.14255000  1
  C  C164  1  0.17360000  0.85978000  0.14255000  1
  C  C165  1  0.31382000  0.14022000  0.85745000  1
  C  C166  1  0.82640000  0.68618000  0.85745000  1
  C  C167  1  0.85978000  0.17360000  0.85745000  1
  C  C168  1  0.80688667  0.64715333  0.47588333  1
  C  C169  1  0.35284667  0.15973333  0.47588333  1
  C  C170  1  0.84026667  0.19311333  0.47588333  1
  C  C171  1  0.98048667  0.47355333  0.19078333  1
  C  C172  1  0.49306667  0.01951333  0.19078333  1
  C  C173  1  0.52644667  0.50693333  0.19078333  1
  C  C174  1  0.47355333  0.98048667  0.80921667  1
  C  C175  1  0.01951333  0.49306667  0.80921667  1
  C  C176  1  0.50693333  0.52644667  0.80921667  1
  C  C177  1  0.64715333  0.80688667  0.52411667  1
  C  C178  1  0.15973333  0.35284667  0.52411667  1
  C  C179  1  0.19311333  0.84026667  0.52411667  1
  H  H180  1  0.10847000  0.28653000  0.11173000  1
  H  H181  1  0.71347000  0.82194000  0.11173000  1
  H  H182  1  0.17806000  0.89153000  0.11173000  1
  H  H183  1  0.28653000  0.10847000  0.88827000  1
  H  H184  1  0.82194000  0.71347000  0.88827000  1
  H  H185  1  0.89153000  0.17806000  0.88827000  1
  H  H186  1  0.77513667  0.61986333  0.44506333  1
  H  H187  1  0.38013667  0.15527333  0.44506333  1
  H  H188  1  0.84472667  0.22486333  0.44506333  1
  H  H189  1  0.95319667  0.44180333  0.22160333  1
  H  H190  1  0.48860667  0.04680333  0.22160333  1
  H  H191  1  0.55819667  0.51139333  0.22160333  1
  H  H192  1  0.44180333  0.95319667  0.77839667  1
  H  H193  1  0.04680333  0.48860667  0.77839667  1
  H  H194  1  0.51139333  0.55819667  0.77839667  1
  H  H195  1  0.61986333  0.77513667  0.55493667  1
  H  H196  1  0.15527333  0.38013667  0.55493667  1
  H  H197  1  0.22486333  0.84472667  0.55493667  1
  C  C198  1  0.28502000  0.34912000  0.17394000  1
  C  C199  1  0.65088000  0.93590000  0.17394000  1
  C  C200  1  0.06410000  0.71498000  0.17394000  1
  C  C201  1  0.34912000  0.28502000  0.82606000  1
  C  C202  1  0.93590000  0.65088000  0.82606000  1
  C  C203  1  0.71498000  0.06410000  0.82606000  1
  C  C204  1  0.95168667  0.68245333  0.50727333  1
  C  C205  1  0.31754667  0.26923333  0.50727333  1
  C  C206  1  0.73076667  0.04831333  0.50727333  1
  C  C207  1  0.01578667  0.61835333  0.15939333  1
  C  C208  1  0.60256667  0.98421333  0.15939333  1
  C  C209  1  0.38164667  0.39743333  0.15939333  1
  C  C210  1  0.61835333  0.01578667  0.84060667  1
  C  C211  1  0.98421333  0.60256667  0.84060667  1
  C  C212  1  0.39743333  0.38164667  0.84060667  1
  C  C213  1  0.68245333  0.95168667  0.49272667  1
  C  C214  1  0.26923333  0.31754667  0.49272667  1
  C  C215  1  0.04831333  0.73076667  0.49272667  1
  C  C216  1  0.33337000  0.39683000  0.16663000  1
  C  C217  1  0.60317000  0.93654000  0.16663000  1
  C  C218  1  0.06346000  0.66663000  0.16663000  1
  C  C219  1  0.39683000  0.33337000  0.83337000  1
  C  C220  1  0.93654000  0.60317000  0.83337000  1
  C  C221  1  0.66663000  0.06346000  0.83337000  1
  C  C222  1  0.00003667  0.73016333  0.49996333  1
  C  C223  1  0.26983667  0.26987333  0.49996333  1
  C  C224  1  0.73012667  0.00000000  0.49996333  1
  H  H225  1  0.33337000  0.42953000  0.16663000  1
  H  H226  1  0.57047000  0.90384000  0.16663000  1
  H  H227  1  0.09616000  0.66663000  0.16663000  1
  H  H228  1  0.42953000  0.33337000  0.83337000  1
  H  H229  1  0.90384000  0.57047000  0.83337000  1
  H  H230  1  0.66663000  0.09616000  0.83337000  1
  H  H231  1  0.00003667  0.76286333  0.49996333  1
  H  H232  1  0.23713667  0.23717333  0.49996333  1
  H  H233  1  0.76282667  0.00000000  0.49996333  1
  C  C234  1  0.28532000  0.30162000  0.17474000  1
  C  C235  1  0.69838000  0.98370000  0.17474000  1
  C  C236  1  0.01630000  0.71468000  0.17474000  1
  C  C237  1  0.30162000  0.28532000  0.82526000  1
  C  C238  1  0.98370000  0.69838000  0.82526000  1
  C  C239  1  0.71468000  0.01630000  0.82526000  1
  C  C240  1  0.95198667  0.63495333  0.50807333  1
  C  C241  1  0.36504667  0.31703333  0.50807333  1
  C  C242  1  0.68296667  0.04801333  0.50807333  1
  C  C243  1  0.96828667  0.61865333  0.15859333  1
  C  C244  1  0.65036667  0.03171333  0.15859333  1
  C  C245  1  0.38134667  0.34963333  0.15859333  1
  C  C246  1  0.61865333  0.96828667  0.84140667  1
  C  C247  1  0.03171333  0.65036667  0.84140667  1
  C  C248  1  0.34963333  0.38134667  0.84140667  1
  C  C249  1  0.63495333  0.95198667  0.49192667  1
  C  C250  1  0.31703333  0.36504667  0.49192667  1
  C  C251  1  0.04801333  0.68296667  0.49192667  1
  H  H252  1  0.25247000  0.26913000  0.18083000  1
  H  H253  1  0.73087000  0.98334000  0.18083000  1
  H  H254  1  0.01666000  0.74753000  0.18083000  1
  H  H255  1  0.26913000  0.25247000  0.81917000  1
  H  H256  1  0.98334000  0.73087000  0.81917000  1
  H  H257  1  0.74753000  0.01666000  0.81917000  1
  H  H258  1  0.91913667  0.60246333  0.51416333  1
  H  H259  1  0.39753667  0.31667333  0.51416333  1
  H  H260  1  0.68332667  0.08086333  0.51416333  1
  H  H261  1  0.93579667  0.58580333  0.15250333  1
  H  H262  1  0.65000667  0.06420333  0.15250333  1
  H  H263  1  0.41419667  0.34999333  0.15250333  1
  H  H264  1  0.58580333  0.93579667  0.84749667  1
  H  H265  1  0.06420333  0.65000667  0.84749667  1
  H  H266  1  0.34999333  0.41419667  0.84749667  1
  H  H267  1  0.60246333  0.91913667  0.48583667  1
  H  H268  1  0.31667333  0.39753667  0.48583667  1
  H  H269  1  0.08086333  0.68332667  0.48583667  1
  C  C270  1  0.33337000  0.30022000  0.16663000  1
  C  C271  1  0.69978000  0.03315000  0.16663000  1
  C  C272  1  0.96685000  0.66663000  0.16663000  1
  C  C273  1  0.30022000  0.33337000  0.83337000  1
  C  C274  1  0.03315000  0.69978000  0.83337000  1
  C  C275  1  0.66663000  0.96685000  0.83337000  1
  C  C276  1  0.00003667  0.63355333  0.49996333  1
  C  C277  1  0.36644667  0.36648333  0.49996333  1
  C  C278  1  0.63351667  0.00000000  0.49996333  1
  C  C279  1  0.33337000  0.24912000  0.16663000  1
  C  C280  1  0.75088000  0.08425000  0.16663000  1
  C  C281  1  0.91575000  0.66663000  0.16663000  1
  C  C282  1  0.24912000  0.33337000  0.83337000  1
  C  C283  1  0.08425000  0.75088000  0.83337000  1
  C  C284  1  0.66663000  0.91575000  0.83337000  1
  C  C285  1  0.00003667  0.58245333  0.49996333  1
  C  C286  1  0.41754667  0.41758333  0.49996333  1
  C  C287  1  0.58241667  0.00000000  0.49996333  1
  C  C288  1  0.36942000  0.24192000  0.10325000  1
  C  C289  1  0.75808000  0.12750000  0.10325000  1
  C  C290  1  0.87250000  0.63058000  0.10325000  1
  C  C291  1  0.24192000  0.36942000  0.89675000  1
  C  C292  1  0.12750000  0.75808000  0.89675000  1
  C  C293  1  0.63058000  0.87250000  0.89675000  1
  C  C294  1  0.03608667  0.57525333  0.43658333  1
  C  C295  1  0.42474667  0.46083333  0.43658333  1
  C  C296  1  0.53916667  0.96391333  0.43658333  1
  C  C297  1  0.90858667  0.70275333  0.23008333  1
  C  C298  1  0.79416667  0.09141333  0.23008333  1
  C  C299  1  0.29724667  0.20583333  0.23008333  1
  C  C300  1  0.70275333  0.90858667  0.76991667  1
  C  C301  1  0.09141333  0.79416667  0.76991667  1
  C  C302  1  0.20583333  0.29724667  0.76991667  1
  C  C303  1  0.57525333  0.03608667  0.56341667  1
  C  C304  1  0.46083333  0.42474667  0.56341667  1
  C  C305  1  0.96391333  0.53916667  0.56341667  1
  H  H306  1  0.39437000  0.27063000  0.06103000  1
  H  H307  1  0.72937000  0.12374000  0.06103000  1
  H  H308  1  0.87626000  0.60563000  0.06103000  1
  H  H309  1  0.27063000  0.39437000  0.93897000  1
  H  H310  1  0.12374000  0.72937000  0.93897000  1
  H  H311  1  0.60563000  0.87626000  0.93897000  1
  H  H312  1  0.06103667  0.60396333  0.39436333  1
  H  H313  1  0.39603667  0.45707333  0.39436333  1
  H  H314  1  0.54292667  0.93896333  0.39436333  1
  H  H315  1  0.93729667  0.72770333  0.27230333  1
  H  H316  1  0.79040667  0.06270333  0.27230333  1
  H  H317  1  0.27229667  0.20959333  0.27230333  1
  H  H318  1  0.72770333  0.93729667  0.72769667  1
  H  H319  1  0.06270333  0.79040667  0.72769667  1
  H  H320  1  0.20959333  0.27229667  0.72769667  1
  H  H321  1  0.60396333  0.06103667  0.60563667  1
  H  H322  1  0.45707333  0.39603667  0.60563667  1
  H  H323  1  0.93896333  0.54292667  0.60563667  1
  C  C324  1  0.36893000  0.19402000  0.10135000  1
  C  C325  1  0.80598000  0.17491000  0.10135000  1
  C  C326  1  0.82509000  0.63107000  0.10135000  1
  C  C327  1  0.19402000  0.36893000  0.89865000  1
  C  C328  1  0.17491000  0.80598000  0.89865000  1
  C  C329  1  0.63107000  0.82509000  0.89865000  1
  C  C330  1  0.03559667  0.52735333  0.43468333  1
  C  C331  1  0.47264667  0.50824333  0.43468333  1
  C  C332  1  0.49175667  0.96440333  0.43468333  1
  C  C333  1  0.86068667  0.70226333  0.23198333  1
  C  C334  1  0.84157667  0.13931333  0.23198333  1
  C  C335  1  0.29773667  0.15842333  0.23198333  1
  C  C336  1  0.70226333  0.86068667  0.76801667  1
  C  C337  1  0.13931333  0.84157667  0.76801667  1
  C  C338  1  0.15842333  0.29773667  0.76801667  1
  C  C339  1  0.52735333  0.03559667  0.56531667  1
  C  C340  1  0.50824333  0.47264667  0.56531667  1
  C  C341  1  0.96440333  0.49175667  0.56531667  1
  H  H342  1  0.39227000  0.18923000  0.05653000  1
  H  H343  1  0.81077000  0.20304000  0.05653000  1
  H  H344  1  0.79696000  0.60773000  0.05653000  1
  H  H345  1  0.18923000  0.39227000  0.94347000  1
  H  H346  1  0.20304000  0.81077000  0.94347000  1
  H  H347  1  0.60773000  0.79696000  0.94347000  1
  H  H348  1  0.05893667  0.52256333  0.38986333  1
  H  H349  1  0.47743667  0.53637333  0.38986333  1
  H  H350  1  0.46362667  0.94106333  0.38986333  1
  H  H351  1  0.85589667  0.72560333  0.27680333  1
  H  H352  1  0.86970667  0.14410333  0.27680333  1
  H  H353  1  0.27439667  0.13029333  0.27680333  1
  H  H354  1  0.72560333  0.85589667  0.72319667  1
  H  H355  1  0.14410333  0.86970667  0.72319667  1
  H  H356  1  0.13029333  0.27439667  0.72319667  1
  H  H357  1  0.52256333  0.05893667  0.61013667  1
  H  H358  1  0.53637333  0.47743667  0.61013667  1
  H  H359  1  0.94106333  0.46362667  0.61013667  1
  C  C360  1  0.33337000  0.15312000  0.16663000  1
  C  C361  1  0.84688000  0.18025000  0.16663000  1
  C  C362  1  0.81975000  0.66663000  0.16663000  1
  C  C363  1  0.15312000  0.33337000  0.83337000  1
  C  C364  1  0.18025000  0.84688000  0.83337000  1
  C  C365  1  0.66663000  0.81975000  0.83337000  1
  C  C366  1  0.00003667  0.48645333  0.49996333  1
  C  C367  1  0.51354667  0.51358333  0.49996333  1
  C  C368  1  0.48641667  0.00000000  0.49996333  1
  C  C369  1  0.33337000  0.09963000  0.16663000  1
  C  C370  1  0.90037000  0.23374000  0.16663000  1
  C  C371  1  0.76626000  0.66663000  0.16663000  1
  C  C372  1  0.09963000  0.33337000  0.83337000  1
  C  C373  1  0.23374000  0.90037000  0.83337000  1
  C  C374  1  0.66663000  0.76626000  0.83337000  1
  C  C375  1  0.00003667  0.43296333  0.49996333  1
  C  C376  1  0.56703667  0.56707333  0.49996333  1
  C  C377  1  0.43292667  0.00000000  0.49996333  1
  La  La378  1  0.98888287  0.33333000  0.33333000  1
  La  La379  1  0.66667000  0.65555287  0.33333000  1
  La  La380  1  0.34444713  0.01111713  0.33333000  1
  La  La381  1  0.33333000  0.98888287  0.66667000  1
  La  La382  1  0.65555287  0.66667000  0.66667000  1
  La  La383  1  0.01111713  0.34444713  0.66667000  1
  La  La384  1  0.00000000  0.32221620  0.00000333  1
  La  La385  1  0.32221954  0.00000333  0.00000333  1
  La  La386  1  0.67778380  0.67778046  0.00000333  1
  O  O387  1  0.08760140  0.38854160  0.27963000  1
  O  O388  1  0.61145840  0.69905980  0.27963000  1
  O  O389  1  0.30094020  0.91239860  0.27963000  1
  O  O390  1  0.38854160  0.08760140  0.72037000  1
  O  O391  1  0.69905980  0.61145840  0.72037000  1
  O  O392  1  0.91239860  0.30094020  0.72037000  1
  O  O393  1  0.75426807  0.72187493  0.61296333  1
  O  O394  1  0.27812507  0.03239313  0.61296333  1
  O  O395  1  0.96760687  0.24573193  0.61296333  1
  O  O396  1  0.05520827  0.42093473  0.05370333  1
  O  O397  1  0.36572647  0.94479173  0.05370333  1
  O  O398  1  0.57906527  0.63427353  0.05370333  1
  O  O399  1  0.42093473  0.05520827  0.94629667  1
  O  O400  1  0.94479173  0.36572647  0.94629667  1
  O  O401  1  0.63427353  0.57906527  0.94629667  1
  O  O402  1  0.72187493  0.75426807  0.38703667  1
  O  O403  1  0.03239313  0.27812507  0.38703667  1
  O  O404  1  0.24573193  0.96760687  0.38703667  1
  O  O405  1  0.04538160  0.32011150  0.16632000  1
  O  O406  1  0.67988850  0.72527010  0.16632000  1
  O  O407  1  0.27472990  0.95461840  0.16632000  1
  O  O408  1  0.32011150  0.04538160  0.83368000  1
  O  O409  1  0.72527010  0.67988850  0.83368000  1
  O  O410  1  0.95461840  0.27472990  0.83368000  1
  O  O411  1  0.71204827  0.65344483  0.49965333  1
  O  O412  1  0.34655517  0.05860343  0.49965333  1
  O  O413  1  0.94139657  0.28795173  0.49965333  1
  O  O414  1  0.98677817  0.37871493  0.16701333  1
  O  O415  1  0.39193677  0.01322183  0.16701333  1
  O  O416  1  0.62128507  0.60806323  0.16701333  1
  O  O417  1  0.37871493  0.98677817  0.83298667  1
  O  O418  1  0.01322183  0.39193677  0.83298667  1
  O  O419  1  0.60806323  0.62128507  0.83298667  1
  O  O420  1  0.65344483  0.71204827  0.50034667  1
  O  O421  1  0.05860343  0.34655517  0.50034667  1
  O  O422  1  0.28795173  0.94139657  0.50034667  1
  O  O423  1  0.34972000  0.08729190  0.08354000  1
  O  O424  1  0.91270810  0.26242810  0.08354000  1
  O  O425  1  0.73757190  0.65028000  0.08354000  1
  O  O426  1  0.08729190  0.34972000  0.91646000  1
  O  O427  1  0.26242810  0.91270810  0.91646000  1
  O  O428  1  0.65028000  0.73757190  0.91646000  1
  O  O429  1  0.01638667  0.42062523  0.41687333  1
  O  O430  1  0.57937477  0.59576143  0.41687333  1
  O  O431  1  0.40423857  0.98361333  0.41687333  1
  O  O432  1  0.75395857  0.68305333  0.24979333  1
  O  O433  1  0.92909477  0.24604143  0.24979333  1
  O  O434  1  0.31694667  0.07090523  0.24979333  1
  O  O435  1  0.68305333  0.75395857  0.75020667  1
  O  O436  1  0.24604143  0.92909477  0.75020667  1
  O  O437  1  0.07090523  0.31694667  0.75020667  1
  O  O438  1  0.42062523  0.01638667  0.58312667  1
  O  O439  1  0.59576143  0.57937477  0.58312667  1
  O  O440  1  0.98361333  0.40423857  0.58312667  1
