# generated using pymatgen
data_Na4CoP3H32C3NO22
_symmetry_space_group_name_H-M   'P 1'
_cell_length_a   11.23274000
_cell_length_b   11.27365000
_cell_length_c   12.33226000
_cell_angle_alpha   108.44840000
_cell_angle_beta   97.17730000
_cell_angle_gamma   117.14240000
_symmetry_Int_Tables_number   1
_chemical_formula_structural   Na4CoP3H32C3NO22
_chemical_formula_sum   'Na8 Co2 P6 H64 C6 N2 O44'
_cell_volume   1249.39843784
_cell_formula_units_Z   2
loop_
 _symmetry_equiv_pos_site_id
 _symmetry_equiv_pos_as_xyz
  1  'x, y, z'
loop_
 _atom_site_type_symbol
 _atom_site_label
 _atom_site_symmetry_multiplicity
 _atom_site_fract_x
 _atom_site_fract_y
 _atom_site_fract_z
 _atom_site_occupancy
  C  C0  1  0.46856150  0.37172160  0.62053120  1
  C  C1  1  0.53143850  0.62827840  0.37946880  1
  C  C2  1  0.34234150  0.49898160  0.68293140  1
  C  C3  1  0.65765850  0.50101840  0.31706860  1
  C  C4  1  0.59903150  0.62580150  0.77366130  1
  C  C5  1  0.40096850  0.37419850  0.22633870  1
  N  N6  1  0.46271110  0.48210120  0.72142100  1
  N  N7  1  0.53728890  0.51789880  0.27857900  1
  O  O8  1  0.70030110  0.40080120  0.75120100  1
  O  O9  1  0.29969890  0.59919880  0.24879900  1
  O  O10  1  0.46296110  0.24532120  0.76912900  1
  O  O11  1  0.53703890  0.75467880  0.23087100  1
  O  O12  1  0.52159110  0.15241110  0.57929900  1
  O  O13  1  0.47840890  0.84758890  0.42070100  1
  O  O14  1  0.13053110  0.21038120  0.57913100  1
  O  O15  1  0.86946890  0.78961880  0.42086900  1
  O  O16  1  0.07345110  0.39980120  0.68179100  1
  O  O17  1  0.92654890  0.60019880  0.31820900  1
  O  O18  1  0.22674100  0.34921120  0.80597900  1
  O  O19  1  0.77325900  0.65078880  0.19402100  1
  O  O20  1  0.54790120  0.81458120  0.93340900  1
  O  O21  1  0.45209880  0.18541880  0.06659100  1
  O  O22  1  0.78682110  0.84326120  0.98720100  1
  O  O23  1  0.21317890  0.15673880  0.01279900  1
  O  O24  1  0.56866110  0.61901110  0.97910900  1
  O  O25  1  0.43133890  0.38098890  0.02089100  1
  O  O26  1  0.70348150  0.94839170  0.72323140  1
  O  O27  1  0.29651850  0.05160830  0.27676860  1
  O  O28  1  0.62596130  0.18108140  0.91820130  1
  O  O29  1  0.37403870  0.81891860  0.08179870  1
  O  O30  1  0.36943170  0.81783180  0.60772130  1
  O  O31  1  0.63056830  0.18216820  0.39227870  1
  O  O34  1  0.32028140  0.92140840  0.85196120  1
  O  O35  1  0.67971860  0.07859160  0.14803880  1
  O  O38  1  0.16684130  0.97597850  0.50926110  1
  O  O39  1  0.83315870  0.02402150  0.49073890  1
  O  O40  1  0.15183130  0.73096860  0.23869110  1
  O  O41  1  0.84816870  0.26903140  0.76130890  1
  O  O42  1  0.86741880  0.53727860  0.00000000  1
  O  O43  1  0.13258120  0.46272140  0.00259110  1
  Na  Na48  1  0.51646700  0.91739800  0.80656600  1
  Na  Na49  1  0.48353300  0.08260200  0.19343400  1
  Na  Na50  1  0.26046800  0.97322100  0.68882600  1
  Na  Na51  1  0.73953200  0.02677900  0.31117400  1
  Na  Na52  1  0.32854700  0.94998300  0.41433600  1
  Na  Na53  1  0.67145300  0.05001700  0.58566400  1
  Na  Na54  1  0.11455700  0.68478300  0.02640600  1
  Na  Na55  1  0.88544300  0.31521700  0.97359400  1
  P  P56  1  0.54564400  0.28634400  0.68210300  1
  P  P57  1  0.45435600  0.71365600  0.31789700  1
  P  P58  1  0.18055400  0.35389400  0.68525300  1
  P  P59  1  0.81944600  0.64610600  0.31474700  1
  P  P60  1  0.62945400  0.73810400  0.92945300  1
  P  P61  1  0.37054600  0.26189600  0.07054700  1
  Co  Co62  1  0.42765200  0.40289200  0.86307200  1
  Co  Co63  1  0.57234800  0.59710800  0.13692800  1
  H  H64  1  0.37231900  0.29120000  0.56461600  1
  H  H65  1  0.62768100  0.70880000  0.43538400  1
  H  H66  1  0.51771800  0.41320000  0.56931600  1
  H  H67  1  0.48228200  0.58680000  0.43068400  1
  H  H68  1  0.33441700  0.50171900  0.60281600  1
  H  H69  1  0.66558300  0.49828100  0.39718400  1
  H  H70  1  0.36401800  0.59120000  0.74181600  1
  H  H71  1  0.63598200  0.40880000  0.25818400  1
  H  H72  1  0.67631800  0.60601900  0.77531500  1
  H  H73  1  0.32368200  0.39398100  0.22468500  1
  H  H74  1  0.61011700  0.67941900  0.72301500  1
  H  H75  1  0.38988300  0.32058100  0.27698500  1
  H  H76  1  0.73020000  0.89630000  0.69420000  1
  H  H77  1  0.26980000  0.10370000  0.30580000  1
  H  H78  1  0.77030000  0.01030000  0.77530000  1
  H  H79  1  0.22970000  0.98970000  0.22470000  1
  H  H84  1  0.19220000  0.68480000  0.23981900  1
  H  H85  1  0.80780000  0.31520000  0.76018100  1
  H  H86  1  0.08320000  0.68780000  0.25291900  1
  H  H87  1  0.91680000  0.31220000  0.74708100  1
  H  H92  1  0.39730000  0.81030000  0.55020000  1
  H  H93  1  0.60270000  0.18970000  0.44980000  1
  H  H94  1  0.29630000  0.75930000  0.58620000  1
  H  H95  1  0.70370000  0.24070000  0.41380000  1
  H  H96  1  0.59320000  0.20130000  0.87520000  1
  H  H97  1  0.40680000  0.79870000  0.12480000  1
  H  H98  1  0.59720000  0.19330000  0.97920000  1
  H  H99  1  0.40280000  0.80670000  0.02080000  1
  H  H104  1  0.34120000  0.98370000  0.91020000  1
  H  H105  1  0.65880000  0.01630000  0.08980000  1
  H  H106  1  0.24830000  0.83770000  0.84920000  1
  H  H107  1  0.75170000  0.16230000  0.15080000  1
  H  H108  1  0.09220000  0.91470000  0.47520000  1
  H  H109  1  0.90780000  0.08530000  0.52480000  1
  H  H110  1  0.16420000  0.05230000  0.53820000  1
  H  H111  1  0.83580000  0.94770000  0.46180000  1
  H  H112  1  0.84488100  0.57580000  0.05621000  1
  H  H113  1  0.15511900  0.42420000  0.94379000  1
  H  H114  1  0.81278300  0.50370000  0.92684000  1
  H  H115  1  0.18721700  0.49630000  0.07316000  1
