# generated using pymatgen
data_Zr3FeH32C48N4ClO25
_symmetry_space_group_name_H-M   'P 1'
_cell_length_a   42.68060000
_cell_length_b   42.68060000
_cell_length_c   16.66030000
_cell_angle_alpha   90.00000000
_cell_angle_beta   90.00000000
_cell_angle_gamma   120.00000000
_symmetry_Int_Tables_number   1
_chemical_formula_structural   Zr3FeH32C48N4ClO25
_chemical_formula_sum   'Zr18 Fe6 H192 C288 N24 Cl6 O150'
_cell_volume   26282.97253697
_cell_formula_units_Z   6
loop_
 _symmetry_equiv_pos_site_id
 _symmetry_equiv_pos_as_xyz
  1  'x, y, z'
loop_
 _atom_site_type_symbol
 _atom_site_label
 _atom_site_symmetry_multiplicity
 _atom_site_fract_x
 _atom_site_fract_y
 _atom_site_fract_z
 _atom_site_occupancy
  Cl  Cl30  1  0.72262000  0.44524000  0.00000000  1
  Cl  Cl31  1  0.55476000  0.27738000  0.00000000  1
  Cl  Cl32  1  0.72262000  0.27738000  0.00000000  1
  Cl  Cl33  1  0.27738000  0.55476000  0.00000000  1
  Cl  Cl34  1  0.44524000  0.72262000  0.00000000  1
  Cl  Cl35  1  0.27738000  0.72262000  0.00000000  1
  O  O36  1  0.47496250  0.44320290  0.50000000  1
  O  O37  1  0.55679710  0.03175960  0.50000000  1
  O  O38  1  0.96824040  0.52503750  0.50000000  1
  O  O39  1  0.52503750  0.55679710  0.50000000  1
  O  O40  1  0.44320290  0.96824040  0.50000000  1
  O  O41  1  0.03175960  0.47496250  0.50000000  1
  O  O42  1  0.44320290  0.47496250  0.50000000  1
  O  O43  1  0.03175960  0.55679710  0.50000000  1
  O  O44  1  0.52503750  0.96824040  0.50000000  1
  O  O45  1  0.55679710  0.52503750  0.50000000  1
  O  O46  1  0.96824040  0.44320290  0.50000000  1
  O  O47  1  0.47496250  0.03175960  0.50000000  1
  C  C48  1  0.65314000  0.50436000  0.96094000  1
  C  C49  1  0.49564000  0.14878000  0.96094000  1
  C  C50  1  0.85122000  0.34686000  0.96094000  1
  C  C51  1  0.34686000  0.49564000  0.96094000  1
  C  C52  1  0.50436000  0.85122000  0.96094000  1
  C  C53  1  0.14878000  0.65314000  0.96094000  1
  C  C54  1  0.50436000  0.65314000  0.03906000  1
  C  C55  1  0.14878000  0.49564000  0.03906000  1
  C  C56  1  0.34686000  0.85122000  0.03906000  1
  C  C57  1  0.49564000  0.34686000  0.03906000  1
  C  C58  1  0.85122000  0.50436000  0.03906000  1
  C  C59  1  0.65314000  0.14878000  0.03906000  1
  C  C60  1  0.34686000  0.49564000  0.03906000  1
  C  C61  1  0.50436000  0.85122000  0.03906000  1
  C  C62  1  0.14878000  0.65314000  0.03906000  1
  C  C63  1  0.65314000  0.50436000  0.03906000  1
  C  C64  1  0.49564000  0.14878000  0.03906000  1
  C  C65  1  0.85122000  0.34686000  0.03906000  1
  C  C66  1  0.49564000  0.34686000  0.96094000  1
  C  C67  1  0.85122000  0.50436000  0.96094000  1
  C  C68  1  0.65314000  0.14878000  0.96094000  1
  C  C69  1  0.50436000  0.65314000  0.96094000  1
  C  C70  1  0.14878000  0.49564000  0.96094000  1
  C  C71  1  0.34686000  0.85122000  0.96094000  1
  H  H72  1  0.63530000  0.50400000  0.92780000  1
  H  H73  1  0.49600000  0.13130000  0.92780000  1
  H  H74  1  0.86870000  0.36470000  0.92780000  1
  H  H75  1  0.36470000  0.49600000  0.92780000  1
  H  H76  1  0.50400000  0.86870000  0.92780000  1
  H  H77  1  0.13130000  0.63530000  0.92780000  1
  H  H78  1  0.50400000  0.63530000  0.07220000  1
  H  H79  1  0.13130000  0.49600000  0.07220000  1
  H  H80  1  0.36470000  0.86870000  0.07220000  1
  H  H81  1  0.49600000  0.36470000  0.07220000  1
  H  H82  1  0.86870000  0.50400000  0.07220000  1
  H  H83  1  0.63530000  0.13130000  0.07220000  1
  H  H84  1  0.36470000  0.49600000  0.07220000  1
  H  H85  1  0.50400000  0.86870000  0.07220000  1
  H  H86  1  0.13130000  0.63530000  0.07220000  1
  H  H87  1  0.63530000  0.50400000  0.07220000  1
  H  H88  1  0.49600000  0.13130000  0.07220000  1
  H  H89  1  0.86870000  0.36470000  0.07220000  1
  H  H90  1  0.49600000  0.36470000  0.92780000  1
  H  H91  1  0.86870000  0.50400000  0.92780000  1
  H  H92  1  0.63530000  0.13130000  0.92780000  1
  H  H93  1  0.50400000  0.63530000  0.92780000  1
  H  H94  1  0.13130000  0.49600000  0.92780000  1
  H  H95  1  0.36470000  0.86870000  0.92780000  1
  C  C96  1  0.74204000  0.51567000  0.74665000  1
  C  C97  1  0.48433000  0.22637000  0.74665000  1
  C  C98  1  0.77363000  0.25796000  0.74665000  1
  C  C99  1  0.25796000  0.48433000  0.74665000  1
  C  C100  1  0.51567000  0.77363000  0.74665000  1
  C  C101  1  0.22637000  0.74204000  0.74665000  1
  C  C102  1  0.51567000  0.74204000  0.25335000  1
  C  C103  1  0.22637000  0.48433000  0.25335000  1
  C  C104  1  0.25796000  0.77363000  0.25335000  1
  C  C105  1  0.48433000  0.25796000  0.25335000  1
  C  C106  1  0.77363000  0.51567000  0.25335000  1
  C  C107  1  0.74204000  0.22637000  0.25335000  1
  C  C108  1  0.25796000  0.48433000  0.25335000  1
  C  C109  1  0.51567000  0.77363000  0.25335000  1
  C  C110  1  0.22637000  0.74204000  0.25335000  1
  C  C111  1  0.74204000  0.51567000  0.25335000  1
  C  C112  1  0.48433000  0.22637000  0.25335000  1
  C  C113  1  0.77363000  0.25796000  0.25335000  1
  C  C114  1  0.48433000  0.25796000  0.74665000  1
  C  C115  1  0.77363000  0.51567000  0.74665000  1
  C  C116  1  0.74204000  0.22637000  0.74665000  1
  C  C117  1  0.51567000  0.74204000  0.74665000  1
  C  C118  1  0.22637000  0.48433000  0.74665000  1
  C  C119  1  0.25796000  0.77363000  0.74665000  1
  H  H120  1  0.73040000  0.51820000  0.70210000  1
  H  H121  1  0.48180000  0.21220000  0.70210000  1
  H  H122  1  0.78780000  0.26960000  0.70210000  1
  H  H123  1  0.26960000  0.48180000  0.70210000  1
  H  H124  1  0.51820000  0.78780000  0.70210000  1
  H  H125  1  0.21220000  0.73040000  0.70210000  1
  H  H126  1  0.51820000  0.73040000  0.29790000  1
  H  H127  1  0.21220000  0.48180000  0.29790000  1
  H  H128  1  0.26960000  0.78780000  0.29790000  1
  H  H129  1  0.48180000  0.26960000  0.29790000  1
  H  H130  1  0.78780000  0.51820000  0.29790000  1
  H  H131  1  0.73040000  0.21220000  0.29790000  1
  H  H132  1  0.26960000  0.48180000  0.29790000  1
  H  H133  1  0.51820000  0.78780000  0.29790000  1
  H  H134  1  0.21220000  0.73040000  0.29790000  1
  H  H135  1  0.73040000  0.51820000  0.29790000  1
  H  H136  1  0.48180000  0.21220000  0.29790000  1
  H  H137  1  0.78780000  0.26960000  0.29790000  1
  H  H138  1  0.48180000  0.26960000  0.70210000  1
  H  H139  1  0.78780000  0.51820000  0.70210000  1
  H  H140  1  0.73040000  0.21220000  0.70210000  1
  H  H141  1  0.51820000  0.73040000  0.70210000  1
  H  H142  1  0.21220000  0.48180000  0.70210000  1
  H  H143  1  0.26960000  0.78780000  0.70210000  1
  C  C144  1  0.72969360  0.51070590  0.82875000  1
  C  C145  1  0.48929410  0.21898770  0.82875000  1
  C  C146  1  0.78101230  0.27030640  0.82875000  1
  C  C147  1  0.27030640  0.48929410  0.82875000  1
  C  C148  1  0.51070590  0.78101230  0.82875000  1
  C  C149  1  0.21898770  0.72969360  0.82875000  1
  C  C150  1  0.51070590  0.72969360  0.17125000  1
  C  C151  1  0.21898770  0.48929410  0.17125000  1
  C  C152  1  0.27030640  0.78101230  0.17125000  1
  C  C153  1  0.48929410  0.27030640  0.17125000  1
  C  C154  1  0.78101230  0.51070590  0.17125000  1
  C  C155  1  0.72969360  0.21898770  0.17125000  1
  C  C156  1  0.27030640  0.48929410  0.17125000  1
  C  C157  1  0.51070590  0.78101230  0.17125000  1
  C  C158  1  0.21898770  0.72969360  0.17125000  1
  C  C159  1  0.72969360  0.51070590  0.17125000  1
  C  C160  1  0.48929410  0.21898770  0.17125000  1
  C  C161  1  0.78101230  0.27030640  0.17125000  1
  C  C162  1  0.48929410  0.27030640  0.82875000  1
  C  C163  1  0.78101230  0.51070590  0.82875000  1
  C  C164  1  0.72969360  0.21898770  0.82875000  1
  C  C165  1  0.51070590  0.72969360  0.82875000  1
  C  C166  1  0.21898770  0.48929410  0.82875000  1
  C  C167  1  0.27030640  0.78101230  0.82875000  1
  C  C168  1  0.59325260  0.50700420  0.63295000  1
  C  C169  1  0.49299580  0.08624840  0.63295000  1
  C  C170  1  0.91375160  0.40674740  0.63295000  1
  C  C171  1  0.40674740  0.49299580  0.63295000  1
  C  C172  1  0.50700420  0.91375160  0.63295000  1
  C  C173  1  0.08624840  0.59325260  0.63295000  1
  C  C174  1  0.50700420  0.59325260  0.36705000  1
  C  C175  1  0.08624840  0.49299580  0.36705000  1
  C  C176  1  0.40674740  0.91375160  0.36705000  1
  C  C177  1  0.49299580  0.40674740  0.36705000  1
  C  C178  1  0.91375160  0.50700420  0.36705000  1
  C  C179  1  0.59325260  0.08624840  0.36705000  1
  C  C180  1  0.40674740  0.49299580  0.36705000  1
  C  C181  1  0.50700420  0.91375160  0.36705000  1
  C  C182  1  0.08624840  0.59325260  0.36705000  1
  C  C183  1  0.59325260  0.50700420  0.36705000  1
  C  C184  1  0.49299580  0.08624840  0.36705000  1
  C  C185  1  0.91375160  0.40674740  0.36705000  1
  C  C186  1  0.49299580  0.40674740  0.63295000  1
  C  C187  1  0.91375160  0.50700420  0.63295000  1
  C  C188  1  0.59325260  0.08624840  0.63295000  1
  C  C189  1  0.50700420  0.59325260  0.63295000  1
  C  C190  1  0.08624840  0.49299580  0.63295000  1
  C  C191  1  0.40674740  0.91375160  0.63295000  1
  N  N192  1  0.75345150  0.50690370  0.87885000  1
  N  N193  1  0.49309630  0.24654780  0.87885000  1
  N  N194  1  0.75345220  0.24654850  0.87885000  1
  N  N195  1  0.24654850  0.49309630  0.87885000  1
  N  N196  1  0.50690370  0.75345220  0.87885000  1
  N  N197  1  0.24654780  0.75345150  0.87885000  1
  N  N198  1  0.50690370  0.75345150  0.12115000  1
  N  N199  1  0.24654780  0.49309630  0.12115000  1
  N  N200  1  0.24654850  0.75345220  0.12115000  1
  N  N201  1  0.49309630  0.24654850  0.12115000  1
  N  N202  1  0.75345220  0.50690370  0.12115000  1
  N  N203  1  0.75345150  0.24654780  0.12115000  1
  O  O204  1  0.51651190  0.48348250  0.39324000  1
  O  O205  1  0.51651750  0.03302940  0.39324000  1
  O  O206  1  0.96697060  0.48348810  0.39324000  1
  O  O207  1  0.48348810  0.51651750  0.39324000  1
  O  O208  1  0.48348250  0.96697060  0.39324000  1
  O  O209  1  0.03302940  0.51651190  0.39324000  1
  O  O210  1  0.48348250  0.51651190  0.60676000  1
  O  O211  1  0.03302940  0.51651750  0.60676000  1
  O  O212  1  0.48348810  0.96697060  0.60676000  1
  O  O213  1  0.51651750  0.48348810  0.60676000  1
  O  O214  1  0.96697060  0.48348250  0.60676000  1
  O  O215  1  0.51651190  0.03302940  0.60676000  1
  O  O252  1  0.58510130  0.53118220  0.64723000  1
  O  O253  1  0.46881780  0.05391910  0.64723000  1
  O  O254  1  0.94608090  0.41489870  0.64723000  1
  O  O255  1  0.41489870  0.46881780  0.64723000  1
  O  O256  1  0.53118220  0.94608090  0.64723000  1
  O  O257  1  0.05391910  0.58510130  0.64723000  1
  O  O258  1  0.53118220  0.58510130  0.35277000  1
  O  O259  1  0.05391910  0.46881780  0.35277000  1
  O  O260  1  0.41489870  0.94608090  0.35277000  1
  O  O261  1  0.46881780  0.41489870  0.35277000  1
  O  O262  1  0.94608090  0.53118220  0.35277000  1
  O  O263  1  0.58510130  0.05391910  0.35277000  1
  O  O264  1  0.41489870  0.46881780  0.35277000  1
  O  O265  1  0.53118220  0.94608090  0.35277000  1
  O  O266  1  0.05391910  0.58510130  0.35277000  1
  O  O267  1  0.58510130  0.53118220  0.35277000  1
  O  O268  1  0.46881780  0.05391910  0.35277000  1
  O  O269  1  0.94608090  0.41489870  0.35277000  1
  O  O270  1  0.46881780  0.41489870  0.64723000  1
  O  O271  1  0.94608090  0.53118220  0.64723000  1
  O  O272  1  0.58510130  0.05391910  0.64723000  1
  O  O273  1  0.53118220  0.58510130  0.64723000  1
  O  O274  1  0.05391910  0.46881780  0.64723000  1
  O  O275  1  0.41489870  0.94608090  0.64723000  1
  O  O276  1  0.57946130  0.48227210  0.58063000  1
  O  O277  1  0.51772790  0.09718920  0.58063000  1
  O  O278  1  0.90281080  0.42053870  0.58063000  1
  O  O279  1  0.42053870  0.51772790  0.58063000  1
  O  O280  1  0.48227210  0.90281080  0.58063000  1
  O  O281  1  0.09718920  0.57946130  0.58063000  1
  O  O282  1  0.48227210  0.57946130  0.41937000  1
  O  O283  1  0.09718920  0.51772790  0.41937000  1
  O  O284  1  0.42053870  0.90281080  0.41937000  1
  O  O285  1  0.51772790  0.42053870  0.41937000  1
  O  O286  1  0.90281080  0.48227210  0.41937000  1
  O  O287  1  0.57946130  0.09718920  0.41937000  1
  O  O288  1  0.42053870  0.51772790  0.41937000  1
  O  O289  1  0.48227210  0.90281080  0.41937000  1
  O  O290  1  0.09718920  0.57946130  0.41937000  1
  O  O291  1  0.57946130  0.48227210  0.41937000  1
  O  O292  1  0.51772790  0.09718920  0.41937000  1
  O  O293  1  0.90281080  0.42053870  0.41937000  1
  O  O294  1  0.51772790  0.42053870  0.58063000  1
  O  O295  1  0.90281080  0.48227210  0.58063000  1
  O  O296  1  0.57946130  0.09718920  0.58063000  1
  O  O297  1  0.48227210  0.57946130  0.58063000  1
  O  O298  1  0.09718920  0.51772790  0.58063000  1
  O  O299  1  0.42053870  0.90281080  0.58063000  1
  Zr  Zr300  1  0.45878200  0.45878200  0.60564500  1
  Zr  Zr301  1  0.54121800  0.00000000  0.60564500  1
  Zr  Zr302  1  0.00000000  0.54121800  0.60564500  1
  Zr  Zr303  1  0.54121800  0.54121800  0.60564500  1
  Zr  Zr304  1  0.45878200  0.00000000  0.60564500  1
  Zr  Zr305  1  0.00000000  0.45878200  0.60564500  1
  Zr  Zr306  1  0.45878200  0.45878200  0.39435500  1
  Zr  Zr307  1  0.00000000  0.54121800  0.39435500  1
  Zr  Zr308  1  0.54121800  0.00000000  0.39435500  1
  Zr  Zr309  1  0.54121800  0.54121800  0.39435500  1
  Zr  Zr310  1  0.00000000  0.45878200  0.39435500  1
  Zr  Zr311  1  0.45878200  0.00000000  0.39435500  1
  Zr  Zr312  1  0.53324011  0.46676025  0.50000000  1
  Zr  Zr313  1  0.53323975  0.06647986  0.50000000  1
  Zr  Zr314  1  0.93352014  0.46675989  0.50000000  1
  Zr  Zr315  1  0.46675989  0.53323975  0.50000000  1
  Zr  Zr316  1  0.46676025  0.93352014  0.50000000  1
  Zr  Zr317  1  0.06647986  0.53324011  0.50000000  1
  Fe  Fe318  1  0.75240500  0.50480130  0.00000000  1
  Fe  Fe319  1  0.49519870  0.24760370  0.00000000  1
  Fe  Fe320  1  0.75239630  0.24759500  0.00000000  1
  Fe  Fe321  1  0.24759500  0.49519870  0.00000000  1
  Fe  Fe322  1  0.50480130  0.75239630  0.00000000  1
  Fe  Fe323  1  0.24760370  0.75240500  0.00000000  1
  N  N324  1  0.70624000  0.50656000  0.00000000  1
  N  N325  1  0.49344000  0.19968000  0.00000000  1
  N  N326  1  0.80032000  0.29376000  0.00000000  1
  N  N327  1  0.29376000  0.49344000  0.00000000  1
  N  N328  1  0.50656000  0.80032000  0.00000000  1
  N  N329  1  0.19968000  0.70624000  0.00000000  1
  N  N330  1  0.50656000  0.70624000  0.00000000  1
  N  N331  1  0.19968000  0.49344000  0.00000000  1
  N  N332  1  0.29376000  0.80032000  0.00000000  1
  N  N333  1  0.49344000  0.29376000  0.00000000  1
  N  N334  1  0.80032000  0.50656000  0.00000000  1
  N  N335  1  0.70624000  0.19968000  0.00000000  1
  C  C336  1  0.62884280  0.47940440  0.68815000  1
  C  C337  1  0.52059560  0.14943840  0.68815000  1
  C  C338  1  0.85056160  0.37115720  0.68815000  1
  C  C339  1  0.37115720  0.52059560  0.68815000  1
  C  C340  1  0.47940440  0.85056160  0.68815000  1
  C  C341  1  0.14943840  0.62884280  0.68815000  1
  C  C342  1  0.47940440  0.62884280  0.31185000  1
  C  C343  1  0.14943840  0.52059560  0.31185000  1
  C  C344  1  0.37115720  0.85056160  0.31185000  1
  C  C345  1  0.52059560  0.37115720  0.31185000  1
  C  C346  1  0.85056160  0.47940440  0.31185000  1
  C  C347  1  0.62884280  0.14943840  0.31185000  1
  C  C348  1  0.37115720  0.52059560  0.31185000  1
  C  C349  1  0.47940440  0.85056160  0.31185000  1
  C  C350  1  0.14943840  0.62884280  0.31185000  1
  C  C351  1  0.62884280  0.47940440  0.31185000  1
  C  C352  1  0.52059560  0.14943840  0.31185000  1
  C  C353  1  0.85056160  0.37115720  0.31185000  1
  C  C354  1  0.52059560  0.37115720  0.68815000  1
  C  C355  1  0.85056160  0.47940440  0.68815000  1
  C  C356  1  0.62884280  0.14943840  0.68815000  1
  C  C357  1  0.47940440  0.62884280  0.68815000  1
  C  C358  1  0.14943840  0.52059560  0.68815000  1
  C  C359  1  0.37115720  0.85056160  0.68815000  1
  H  H360  1  0.61570000  0.45980000  0.65430000  1
  H  H361  1  0.54020000  0.15590000  0.65430000  1
  H  H362  1  0.84410000  0.38430000  0.65430000  1
  H  H363  1  0.38430000  0.54020000  0.65430000  1
  H  H364  1  0.45980000  0.84410000  0.65430000  1
  H  H365  1  0.15590000  0.61570000  0.65430000  1
  H  H366  1  0.45980000  0.61570000  0.34570000  1
  H  H367  1  0.15590000  0.54020000  0.34570000  1
  H  H368  1  0.38430000  0.84410000  0.34570000  1
  H  H369  1  0.54020000  0.38430000  0.34570000  1
  H  H370  1  0.84410000  0.45980000  0.34570000  1
  H  H371  1  0.61570000  0.15590000  0.34570000  1
  H  H372  1  0.38430000  0.54020000  0.34570000  1
  H  H373  1  0.45980000  0.84410000  0.34570000  1
  H  H374  1  0.15590000  0.61570000  0.34570000  1
  H  H375  1  0.61570000  0.45980000  0.34570000  1
  H  H376  1  0.54020000  0.15590000  0.34570000  1
  H  H377  1  0.84410000  0.38430000  0.34570000  1
  H  H378  1  0.54020000  0.38430000  0.65430000  1
  H  H379  1  0.84410000  0.45980000  0.65430000  1
  H  H380  1  0.61570000  0.15590000  0.65430000  1
  H  H381  1  0.45980000  0.61570000  0.65430000  1
  H  H382  1  0.15590000  0.54020000  0.65430000  1
  H  H383  1  0.38430000  0.84410000  0.65430000  1
  C  C384  1  0.62284000  0.50816000  0.68525000  1
  C  C385  1  0.49184000  0.11468000  0.68525000  1
  C  C386  1  0.88532000  0.37716000  0.68525000  1
  C  C387  1  0.37716000  0.49184000  0.68525000  1
  C  C388  1  0.50816000  0.88532000  0.68525000  1
  C  C389  1  0.11468000  0.62284000  0.68525000  1
  C  C390  1  0.50816000  0.62284000  0.31475000  1
  C  C391  1  0.11468000  0.49184000  0.31475000  1
  C  C392  1  0.37716000  0.88532000  0.31475000  1
  C  C393  1  0.49184000  0.37716000  0.31475000  1
  C  C394  1  0.88532000  0.50816000  0.31475000  1
  C  C395  1  0.62284000  0.11468000  0.31475000  1
  C  C396  1  0.37716000  0.49184000  0.31475000  1
  C  C397  1  0.50816000  0.88532000  0.31475000  1
  C  C398  1  0.11468000  0.62284000  0.31475000  1
  C  C399  1  0.62284000  0.50816000  0.31475000  1
  C  C400  1  0.49184000  0.11468000  0.31475000  1
  C  C401  1  0.88532000  0.37716000  0.31475000  1
  C  C402  1  0.49184000  0.37716000  0.68525000  1
  C  C403  1  0.88532000  0.50816000  0.68525000  1
  C  C404  1  0.62284000  0.11468000  0.68525000  1
  C  C405  1  0.50816000  0.62284000  0.68525000  1
  C  C406  1  0.11468000  0.49184000  0.68525000  1
  C  C407  1  0.37716000  0.88532000  0.68525000  1
  C  C408  1  0.67154000  0.50666000  0.79095000  1
  C  C409  1  0.49334000  0.16488000  0.79095000  1
  C  C410  1  0.83512000  0.32846000  0.79095000  1
  C  C411  1  0.32846000  0.49334000  0.79095000  1
  C  C412  1  0.50666000  0.83512000  0.79095000  1
  C  C413  1  0.16488000  0.67154000  0.79095000  1
  C  C414  1  0.50666000  0.67154000  0.20905000  1
  C  C415  1  0.16488000  0.49334000  0.20905000  1
  C  C416  1  0.32846000  0.83512000  0.20905000  1
  C  C417  1  0.49334000  0.32846000  0.20905000  1
  C  C418  1  0.83512000  0.50666000  0.20905000  1
  C  C419  1  0.67154000  0.16488000  0.20905000  1
  C  C420  1  0.32846000  0.49334000  0.20905000  1
  C  C421  1  0.50666000  0.83512000  0.20905000  1
  C  C422  1  0.16488000  0.67154000  0.20905000  1
  C  C423  1  0.67154000  0.50666000  0.20905000  1
  C  C424  1  0.49334000  0.16488000  0.20905000  1
  C  C425  1  0.83512000  0.32846000  0.20905000  1
  C  C426  1  0.49334000  0.32846000  0.79095000  1
  C  C427  1  0.83512000  0.50666000  0.79095000  1
  C  C428  1  0.67154000  0.16488000  0.79095000  1
  C  C429  1  0.50666000  0.67154000  0.79095000  1
  C  C430  1  0.16488000  0.49334000  0.79095000  1
  C  C431  1  0.32846000  0.83512000  0.79095000  1
  C  C432  1  0.65347360  0.47870590  0.73895000  1
  C  C433  1  0.52129410  0.17476770  0.73895000  1
  C  C434  1  0.82523230  0.34652640  0.73895000  1
  C  C435  1  0.34652640  0.52129410  0.73895000  1
  C  C436  1  0.47870590  0.82523230  0.73895000  1
  C  C437  1  0.17476770  0.65347360  0.73895000  1
  C  C438  1  0.47870590  0.65347360  0.26105000  1
  C  C439  1  0.17476770  0.52129410  0.26105000  1
  C  C440  1  0.34652640  0.82523230  0.26105000  1
  C  C441  1  0.52129410  0.34652640  0.26105000  1
  C  C442  1  0.82523230  0.47870590  0.26105000  1
  C  C443  1  0.65347360  0.17476770  0.26105000  1
  C  C444  1  0.34652640  0.52129410  0.26105000  1
  C  C445  1  0.47870590  0.82523230  0.26105000  1
  C  C446  1  0.17476770  0.65347360  0.26105000  1
  C  C447  1  0.65347360  0.47870590  0.26105000  1
  C  C448  1  0.52129410  0.17476770  0.26105000  1
  C  C449  1  0.82523230  0.34652640  0.26105000  1
  C  C450  1  0.52129410  0.34652640  0.73895000  1
  C  C451  1  0.82523230  0.47870590  0.73895000  1
  C  C452  1  0.65347360  0.17476770  0.73895000  1
  C  C453  1  0.47870590  0.65347360  0.73895000  1
  C  C454  1  0.17476770  0.52129410  0.73895000  1
  C  C455  1  0.34652640  0.82523230  0.73895000  1
  H  H456  1  0.65790000  0.45950000  0.73800000  1
  H  H457  1  0.54050000  0.19840000  0.73800000  1
  H  H458  1  0.80160000  0.34210000  0.73800000  1
  H  H459  1  0.34210000  0.54050000  0.73800000  1
  H  H460  1  0.45950000  0.80160000  0.73800000  1
  H  H461  1  0.19840000  0.65790000  0.73800000  1
  H  H462  1  0.45950000  0.65790000  0.26200000  1
  H  H463  1  0.19840000  0.54050000  0.26200000  1
  H  H464  1  0.34210000  0.80160000  0.26200000  1
  H  H465  1  0.54050000  0.34210000  0.26200000  1
  H  H466  1  0.80160000  0.45950000  0.26200000  1
  H  H467  1  0.65790000  0.19840000  0.26200000  1
  H  H468  1  0.34210000  0.54050000  0.26200000  1
  H  H469  1  0.45950000  0.80160000  0.26200000  1
  H  H470  1  0.19840000  0.65790000  0.26200000  1
  H  H471  1  0.65790000  0.45950000  0.26200000  1
  H  H472  1  0.54050000  0.19840000  0.26200000  1
  H  H473  1  0.80160000  0.34210000  0.26200000  1
  H  H474  1  0.54050000  0.34210000  0.73800000  1
  H  H475  1  0.80160000  0.45950000  0.73800000  1
  H  H476  1  0.65790000  0.19840000  0.73800000  1
  H  H477  1  0.45950000  0.65790000  0.73800000  1
  H  H478  1  0.19840000  0.54050000  0.73800000  1
  H  H479  1  0.34210000  0.80160000  0.73800000  1
  C  C480  1  0.64174000  0.53736000  0.73246000  1
  C  C481  1  0.46264000  0.10438000  0.73246000  1
  C  C482  1  0.89562000  0.35826000  0.73246000  1
  C  C483  1  0.35826000  0.46264000  0.73246000  1
  C  C484  1  0.53736000  0.89562000  0.73246000  1
  C  C485  1  0.10438000  0.64174000  0.73246000  1
  C  C486  1  0.53736000  0.64174000  0.26754000  1
  C  C487  1  0.10438000  0.46264000  0.26754000  1
  C  C488  1  0.35826000  0.89562000  0.26754000  1
  C  C489  1  0.46264000  0.35826000  0.26754000  1
  C  C490  1  0.89562000  0.53736000  0.26754000  1
  C  C491  1  0.64174000  0.10438000  0.26754000  1
  C  C492  1  0.35826000  0.46264000  0.26754000  1
  C  C493  1  0.53736000  0.89562000  0.26754000  1
  C  C494  1  0.10438000  0.64174000  0.26754000  1
  C  C495  1  0.64174000  0.53736000  0.26754000  1
  C  C496  1  0.46264000  0.10438000  0.26754000  1
  C  C497  1  0.89562000  0.35826000  0.26754000  1
  C  C498  1  0.46264000  0.35826000  0.73246000  1
  C  C499  1  0.89562000  0.53736000  0.73246000  1
  C  C500  1  0.64174000  0.10438000  0.73246000  1
  C  C501  1  0.53736000  0.64174000  0.73246000  1
  C  C502  1  0.10438000  0.46264000  0.73246000  1
  C  C503  1  0.35826000  0.89562000  0.73246000  1
  H  H504  1  0.63810000  0.55700000  0.72920000  1
  H  H505  1  0.44300000  0.08110000  0.72920000  1
  H  H506  1  0.91890000  0.36190000  0.72920000  1
  H  H507  1  0.36190000  0.44300000  0.72920000  1
  H  H508  1  0.55700000  0.91890000  0.72920000  1
  H  H509  1  0.08110000  0.63810000  0.72920000  1
  H  H510  1  0.55700000  0.63810000  0.27080000  1
  H  H511  1  0.08110000  0.44300000  0.27080000  1
  H  H512  1  0.36190000  0.91890000  0.27080000  1
  H  H513  1  0.44300000  0.36190000  0.27080000  1
  H  H514  1  0.91890000  0.55700000  0.27080000  1
  H  H515  1  0.63810000  0.08110000  0.27080000  1
  H  H516  1  0.36190000  0.44300000  0.27080000  1
  H  H517  1  0.55700000  0.91890000  0.27080000  1
  H  H518  1  0.08110000  0.63810000  0.27080000  1
  H  H519  1  0.63810000  0.55700000  0.27080000  1
  H  H520  1  0.44300000  0.08110000  0.27080000  1
  H  H521  1  0.91890000  0.36190000  0.27080000  1
  H  H522  1  0.44300000  0.36190000  0.72920000  1
  H  H523  1  0.91890000  0.55700000  0.72920000  1
  H  H524  1  0.63810000  0.08110000  0.72920000  1
  H  H525  1  0.55700000  0.63810000  0.72920000  1
  H  H526  1  0.08110000  0.44300000  0.72920000  1
  H  H527  1  0.36190000  0.91890000  0.72920000  1
  C  C528  1  0.68594000  0.50476000  0.93475000  1
  C  C529  1  0.49524000  0.18118000  0.93475000  1
  C  C530  1  0.81882000  0.31406000  0.93475000  1
  C  C531  1  0.31406000  0.49524000  0.93475000  1
  C  C532  1  0.50476000  0.81882000  0.93475000  1
  C  C533  1  0.18118000  0.68594000  0.93475000  1
  C  C534  1  0.50476000  0.68594000  0.06525000  1
  C  C535  1  0.18118000  0.49524000  0.06525000  1
  C  C536  1  0.31406000  0.81882000  0.06525000  1
  C  C537  1  0.49524000  0.31406000  0.06525000  1
  C  C538  1  0.81882000  0.50476000  0.06525000  1
  C  C539  1  0.68594000  0.18118000  0.06525000  1
  C  C540  1  0.31406000  0.49524000  0.06525000  1
  C  C541  1  0.50476000  0.81882000  0.06525000  1
  C  C542  1  0.18118000  0.68594000  0.06525000  1
  C  C543  1  0.68594000  0.50476000  0.06525000  1
  C  C544  1  0.49524000  0.18118000  0.06525000  1
  C  C545  1  0.81882000  0.31406000  0.06525000  1
  C  C546  1  0.49524000  0.31406000  0.93475000  1
  C  C547  1  0.81882000  0.50476000  0.93475000  1
  C  C548  1  0.68594000  0.18118000  0.93475000  1
  C  C549  1  0.50476000  0.68594000  0.93475000  1
  C  C550  1  0.18118000  0.49524000  0.93475000  1
  C  C551  1  0.31406000  0.81882000  0.93475000  1
  C  C552  1  0.69614000  0.50626000  0.85555000  1
  C  C553  1  0.49374000  0.18988000  0.85555000  1
  C  C554  1  0.81012000  0.30386000  0.85555000  1
  C  C555  1  0.30386000  0.49374000  0.85555000  1
  C  C556  1  0.50626000  0.81012000  0.85555000  1
  C  C557  1  0.18988000  0.69614000  0.85555000  1
  C  C558  1  0.50626000  0.69614000  0.14445000  1
  C  C559  1  0.18988000  0.49374000  0.14445000  1
  C  C560  1  0.30386000  0.81012000  0.14445000  1
  C  C561  1  0.49374000  0.30386000  0.14445000  1
  C  C562  1  0.81012000  0.50626000  0.14445000  1
  C  C563  1  0.69614000  0.18988000  0.14445000  1
  C  C564  1  0.30386000  0.49374000  0.14445000  1
  C  C565  1  0.50626000  0.81012000  0.14445000  1
  C  C566  1  0.18988000  0.69614000  0.14445000  1
  C  C567  1  0.69614000  0.50626000  0.14445000  1
  C  C568  1  0.49374000  0.18988000  0.14445000  1
  C  C569  1  0.81012000  0.30386000  0.14445000  1
  C  C570  1  0.49374000  0.30386000  0.85555000  1
  C  C571  1  0.81012000  0.50626000  0.85555000  1
  C  C572  1  0.69614000  0.18988000  0.85555000  1
  C  C573  1  0.50626000  0.69614000  0.85555000  1
  C  C574  1  0.18988000  0.49374000  0.85555000  1
  C  C575  1  0.30386000  0.81012000  0.85555000  1
  C  C576  1  0.66774000  0.53746000  0.78755000  1
  C  C577  1  0.46254000  0.13028000  0.78755000  1
  C  C578  1  0.86972000  0.33226000  0.78755000  1
  C  C579  1  0.33226000  0.46254000  0.78755000  1
  C  C580  1  0.53746000  0.86972000  0.78755000  1
  C  C581  1  0.13028000  0.66774000  0.78755000  1
  C  C582  1  0.53746000  0.66774000  0.21245000  1
  C  C583  1  0.13028000  0.46254000  0.21245000  1
  C  C584  1  0.33226000  0.86972000  0.21245000  1
  C  C585  1  0.46254000  0.33226000  0.21245000  1
  C  C586  1  0.86972000  0.53746000  0.21245000  1
  C  C587  1  0.66774000  0.13028000  0.21245000  1
  C  C588  1  0.33226000  0.46254000  0.21245000  1
  C  C589  1  0.53746000  0.86972000  0.21245000  1
  C  C590  1  0.13028000  0.66774000  0.21245000  1
  C  C591  1  0.66774000  0.53746000  0.21245000  1
  C  C592  1  0.46254000  0.13028000  0.21245000  1
  C  C593  1  0.86972000  0.33226000  0.21245000  1
  C  C594  1  0.46254000  0.33226000  0.78755000  1
  C  C595  1  0.86972000  0.53746000  0.78755000  1
  C  C596  1  0.66774000  0.13028000  0.78755000  1
  C  C597  1  0.53746000  0.66774000  0.78755000  1
  C  C598  1  0.13028000  0.46254000  0.78755000  1
  C  C599  1  0.33226000  0.86972000  0.78755000  1
  H  H600  1  0.68150000  0.55730000  0.82010000  1
  H  H601  1  0.44270000  0.12420000  0.82010000  1
  H  H602  1  0.87580000  0.31850000  0.82010000  1
  H  H603  1  0.31850000  0.44270000  0.82010000  1
  H  H604  1  0.55730000  0.87580000  0.82010000  1
  H  H605  1  0.12420000  0.68150000  0.82010000  1
  H  H606  1  0.55730000  0.68150000  0.17990000  1
  H  H607  1  0.12420000  0.44270000  0.17990000  1
  H  H608  1  0.31850000  0.87580000  0.17990000  1
  H  H609  1  0.44270000  0.31850000  0.17990000  1
  H  H610  1  0.87580000  0.55730000  0.17990000  1
  H  H611  1  0.68150000  0.12420000  0.17990000  1
  H  H612  1  0.31850000  0.44270000  0.17990000  1
  H  H613  1  0.55730000  0.87580000  0.17990000  1
  H  H614  1  0.12420000  0.68150000  0.17990000  1
  H  H615  1  0.68150000  0.55730000  0.17990000  1
  H  H616  1  0.44270000  0.12420000  0.17990000  1
  H  H617  1  0.87580000  0.31850000  0.17990000  1
  H  H618  1  0.44270000  0.31850000  0.82010000  1
  H  H619  1  0.87580000  0.55730000  0.82010000  1
  H  H620  1  0.68150000  0.12420000  0.82010000  1
  H  H621  1  0.55730000  0.68150000  0.82010000  1
  H  H622  1  0.12420000  0.44270000  0.82010000  1
  H  H623  1  0.31850000  0.87580000  0.82010000  1
