# generated using pymatgen
data_Ti3P4H12(CO9)2
_symmetry_space_group_name_H-M   'P 1'
_cell_length_a   6.38452000
_cell_length_b   11.18164000
_cell_length_c   11.70035000
_cell_angle_alpha   90.00000000
_cell_angle_beta   99.99410000
_cell_angle_gamma   90.00000000
_symmetry_Int_Tables_number   1
_chemical_formula_structural   Ti3P4H12(CO9)2
_chemical_formula_sum   'Ti6 P8 H24 C4 O36'
_cell_volume   822.60615166
_cell_formula_units_Z   2
loop_
 _symmetry_equiv_pos_site_id
 _symmetry_equiv_pos_as_xyz
  1  'x, y, z'
loop_
 _atom_site_type_symbol
 _atom_site_label
 _atom_site_symmetry_multiplicity
 _atom_site_fract_x
 _atom_site_fract_y
 _atom_site_fract_z
 _atom_site_occupancy
  Ti  Ti0  1  0.78219000  0.71529000  0.99149000  1
  Ti  Ti1  1  0.21781000  0.21529000  0.50851000  1
  Ti  Ti2  1  0.21781000  0.28471000  0.00851000  1
  Ti  Ti3  1  0.78219000  0.78471000  0.49149000  1
  Ti  Ti4  1  0.00000000  0.00000000  0.00000000  1
  Ti  Ti5  1  0.00000000  0.50000000  0.50000000  1
  P  P6  1  0.89819000  0.84399000  0.77109000  1
  P  P7  1  0.10181000  0.34399000  0.72891000  1
  P  P8  1  0.10181000  0.15601000  0.22891000  1
  P  P9  1  0.89819000  0.65601000  0.27109000  1
  P  P10  1  0.25251000  0.76749000  0.95019000  1
  P  P11  1  0.74749000  0.26749000  0.54981000  1
  P  P12  1  0.74749000  0.23251000  0.04981000  1
  P  P13  1  0.25251000  0.73251000  0.45019000  1
  O  O14  1  0.75947000  0.75658000  0.82578000  1
  O  O15  1  0.24053000  0.25658000  0.67422000  1
  O  O16  1  0.24053000  0.24342000  0.17422000  1
  O  O17  1  0.75947000  0.74342000  0.32578000  1
  O  O18  1  0.24223000  0.89328000  0.00262000  1
  O  O19  1  0.75777000  0.39328000  0.49738000  1
  O  O20  1  0.75777000  0.10672000  0.00000000  1
  O  O21  1  0.24223000  0.60672000  0.50262000  1
  O  O22  1  0.81667000  0.86228000  0.64288000  1
  O  O23  1  0.18333000  0.36228000  0.85712000  1
  O  O24  1  0.18333000  0.13772000  0.35712000  1
  O  O25  1  0.81667000  0.63772000  0.14288000  1
  O  O26  1  0.47533000  0.71738000  0.97698000  1
  O  O27  1  0.52467000  0.21738000  0.52302000  1
  O  O28  1  0.52467000  0.28262000  0.02302000  1
  O  O29  1  0.47533000  0.78262000  0.47698000  1
  O  O30  1  0.09503000  0.68338000  0.00000000  1
  O  O31  1  0.90497000  0.18338000  0.50472000  1
  O  O32  1  0.90497000  0.31662000  0.00472000  1
  O  O33  1  0.09503000  0.81662000  0.49528000  1
  O  O34  1  0.83487000  0.86388000  0.03592000  1
  O  O35  1  0.16513000  0.36388000  0.46408000  1
  O  O36  1  0.16513000  0.13612000  0.96408000  1
  O  O37  1  0.83487000  0.63612000  0.53592000  1
  O  O38  1  0.91137000  0.96558000  0.83428000  1
  O  O39  1  0.08863000  0.46558000  0.66572000  1
  O  O40  1  0.08863000  0.03442000  0.16572000  1
  O  O41  1  0.91137000  0.53442000  0.33428000  1
  C  C46  1  0.16294000  0.78087000  0.79608000  1
  C  C47  1  0.83706000  0.28087000  0.70392000  1
  C  C48  1  0.83706000  0.21913000  0.20392000  1
  C  C49  1  0.16294000  0.71913000  0.29608000  1
  H  H50  1  0.15325600  0.70256700  0.76477000  1
  H  H51  1  0.84674400  0.20256700  0.73523000  1
  H  H52  1  0.84674400  0.29743300  0.23523000  1
  H  H53  1  0.15325600  0.79743300  0.26477000  1
  H  H54  1  0.26466200  0.83226600  0.76306800  1
  H  H55  1  0.73533800  0.33226600  0.73693200  1
  H  H56  1  0.73533800  0.16773400  0.23693200  1
  H  H57  1  0.26466200  0.66773400  0.26306800  1
