# generated using pymatgen
data_ErCuH23C16(NO10)2
_symmetry_space_group_name_H-M   'P 1'
_cell_length_a   10.63220000
_cell_length_b   13.86230000
_cell_length_c   19.49840000
_cell_angle_alpha   90.00000000
_cell_angle_beta   99.98300000
_cell_angle_gamma   90.00000000
_symmetry_Int_Tables_number   1
_chemical_formula_structural   ErCuH23C16(NO10)2
_chemical_formula_sum   'Er4 Cu4 H92 C64 N8 O80'
_cell_volume   2830.29410388
_cell_formula_units_Z   4
loop_
 _symmetry_equiv_pos_site_id
 _symmetry_equiv_pos_as_xyz
  1  'x, y, z'
loop_
 _atom_site_type_symbol
 _atom_site_label
 _atom_site_symmetry_multiplicity
 _atom_site_fract_x
 _atom_site_fract_y
 _atom_site_fract_z
 _atom_site_occupancy
  O  O0  1  0.78403000  0.07642000  0.37866190  1
  O  O1  1  0.21597000  0.57642000  0.12133810  1
  O  O2  1  0.21597000  0.92358000  0.62133810  1
  O  O3  1  0.78403000  0.42358000  0.87866190  1
  Er  Er4  1  0.15501619  0.43292415  0.05591112  1
  Er  Er5  1  0.84498381  0.93292415  0.44408888  1
  Er  Er6  1  0.84498381  0.56707585  0.94408888  1
  Er  Er7  1  0.15501619  0.06707585  0.55591112  1
  Cu  Cu8  1  0.75657500  0.43210400  0.28942300  1
  Cu  Cu9  1  0.24342500  0.93210400  0.21057700  1
  Cu  Cu10  1  0.24342500  0.56789600  0.71057700  1
  Cu  Cu11  1  0.75657500  0.06789600  0.78942300  1
  N  N12  1  0.87104000  0.32023000  0.27962000  1
  N  N13  1  0.12896000  0.82023000  0.22038000  1
  N  N14  1  0.12896000  0.67977000  0.72038000  1
  N  N15  1  0.87104000  0.17977000  0.77962000  1
  C  C16  1  0.84894000  0.23933000  0.31243000  1
  C  C17  1  0.15106000  0.73933000  0.18757000  1
  C  C18  1  0.15106000  0.76067000  0.68757000  1
  C  C19  1  0.84894000  0.26067000  0.81243000  1
  H  H20  1  0.78390000  0.23950000  0.33880000  1
  H  H21  1  0.21610000  0.73950000  0.16120000  1
  H  H22  1  0.21610000  0.76050000  0.66120000  1
  H  H23  1  0.78390000  0.26050000  0.83880000  1
  O  O24  1  0.94253000  0.99168000  0.34891190  1
  O  O25  1  0.05747000  0.49168000  0.15108810  1
  O  O26  1  0.05747000  0.00832000  0.65108810  1
  O  O27  1  0.94253000  0.50832000  0.84891190  1
  C  C28  1  0.91714000  0.15533000  0.30933000  1
  C  C29  1  0.08286000  0.65533000  0.19067000  1
  C  C30  1  0.08286000  0.84467000  0.69067000  1
  C  C31  1  0.91714000  0.34467000  0.80933000  1
  N  N32  1  0.35834000  0.04473000  0.20602000  1
  N  N33  1  0.64166000  0.54473000  0.29398000  1
  N  N34  1  0.64166000  0.95527000  0.79398000  1
  N  N35  1  0.35834000  0.45527000  0.70602000  1
  O  O36  1  0.19593000  0.06092000  0.32397190  1
  O  O37  1  0.80407000  0.56092000  0.17602810  1
  O  O38  1  0.80407000  0.93908000  0.67602810  1
  O  O39  1  0.19593000  0.43908000  0.82397190  1
  C  C40  1  0.01814000  0.15543000  0.27213000  1
  C  C41  1  0.98186000  0.65543000  0.22787000  1
  C  C42  1  0.98186000  0.84457000  0.72787000  1
  C  C43  1  0.01814000  0.34457000  0.77213000  1
  O  O44  1  0.10073000  0.02392000  0.21587190  1
  O  O45  1  0.89927000  0.52392000  0.28412810  1
  O  O46  1  0.89927000  0.97608000  0.78412810  1
  O  O47  1  0.10073000  0.47608000  0.71587190  1
  C  C48  1  0.03965000  0.23894000  0.23753000  1
  C  C49  1  0.96035000  0.73894000  0.26247000  1
  C  C50  1  0.96035000  0.76106000  0.76247000  1
  C  C51  1  0.03965000  0.26106000  0.73753000  1
  H  H52  1  0.10490000  0.24080000  0.21130000  1
  H  H53  1  0.89510000  0.74080000  0.28870000  1
  H  H54  1  0.89510000  0.75920000  0.78870000  1
  H  H55  1  0.10490000  0.25920000  0.71130000  1
  O  O56  1  0.28673000  0.36712000  0.15912190  1
  O  O57  1  0.71327000  0.86712000  0.34087810  1
  O  O58  1  0.71327000  0.63288000  0.84087810  1
  O  O59  1  0.28673000  0.13288000  0.65912190  1
  C  C60  1  0.96485000  0.31973000  0.24133000  1
  C  C61  1  0.03515000  0.81973000  0.25867000  1
  C  C62  1  0.03515000  0.68027000  0.75867000  1
  C  C63  1  0.96485000  0.18027000  0.74133000  1
  H  H64  1  0.97960000  0.37490000  0.21670000  1
  H  H65  1  0.02040000  0.87490000  0.28330000  1
  H  H66  1  0.02040000  0.62510000  0.78330000  1
  H  H67  1  0.97960000  0.12510000  0.71670000  1
  C  C68  1  0.87965000  0.06873000  0.34753000  1
  C  C69  1  0.12035000  0.56873000  0.15247000  1
  C  C70  1  0.12035000  0.93127000  0.65247000  1
  C  C71  1  0.87965000  0.43127000  0.84753000  1
  O  O72  1  0.26993000  0.27723000  0.06412000  1
  O  O73  1  0.73007000  0.77723000  0.43588000  1
  O  O74  1  0.73007000  0.72277000  0.93588000  1
  O  O75  1  0.26993000  0.22277000  0.56412000  1
  C  C76  1  0.11095000  0.07233000  0.27243000  1
  C  C77  1  0.88905000  0.57233000  0.22757000  1
  C  C78  1  0.88905000  0.92767000  0.72757000  1
  C  C79  1  0.11095000  0.42767000  0.77243000  1
  O  O80  1  0.61163000  0.34162000  0.28135190  1
  O  O81  1  0.38837000  0.84162000  0.21864810  1
  O  O82  1  0.38837000  0.65838000  0.71864810  1
  O  O83  1  0.61163000  0.15838000  0.78135190  1
  C  C84  1  0.31505000  0.12104000  0.16693000  1
  C  C85  1  0.68495000  0.62104000  0.33307000  1
  C  C86  1  0.68495000  0.87896000  0.83307000  1
  C  C87  1  0.31505000  0.37896000  0.66693000  1
  H  H88  1  0.23940000  0.11430000  0.13510000  1
  H  H89  1  0.76060000  0.61430000  0.36490000  1
  H  H90  1  0.76060000  0.88570000  0.86490000  1
  H  H91  1  0.23940000  0.38570000  0.63510000  1
  O  O92  1  0.58623000  0.34743000  0.16502000  1
  O  O93  1  0.41377000  0.84743000  0.33498000  1
  O  O94  1  0.41377000  0.65257000  0.83498000  1
  O  O95  1  0.58623000  0.15257000  0.66502000  1
  O  O96  1  0.92027000  0.43902000  0.01863190  1
  O  O97  1  0.07973000  0.93902000  0.48136810  1
  O  O98  1  0.07973000  0.56098000  0.98136810  1
  O  O99  1  0.92027000  0.06098000  0.51863190  1
  C  C100  1  0.37595000  0.20853000  0.17103000  1
  C  C101  1  0.62405000  0.70853000  0.32897000  1
  C  C102  1  0.62405000  0.79147000  0.82897000  1
  C  C103  1  0.37595000  0.29147000  0.67103000  1
  O  O104  1  0.00293000  0.30872000  0.07095190  1
  O  O105  1  0.00000000  0.80872000  0.42904810  1
  O  O106  1  0.00000000  0.69128000  0.92904810  1
  O  O107  1  0.00293000  0.19128000  0.57095190  1
  C  C108  1  0.49084000  0.21873000  0.21662000  1
  C  C109  1  0.50916000  0.71873000  0.28338000  1
  C  C110  1  0.50916000  0.78127000  0.78338000  1
  C  C111  1  0.49084000  0.28127000  0.71662000  1
  C  C112  1  0.53884000  0.13943000  0.25593000  1
  C  C113  1  0.46116000  0.63943000  0.24407000  1
  C  C114  1  0.46116000  0.86057000  0.74407000  1
  C  C115  1  0.53884000  0.36057000  0.75593000  1
  H  H116  1  0.61650000  0.14360000  0.28610000  1
  H  H117  1  0.38350000  0.64360000  0.21390000  1
  H  H118  1  0.38350000  0.85640000  0.71390000  1
  H  H119  1  0.61650000  0.35640000  0.78610000  1
  C  C132  1  0.47055000  0.05443000  0.25003000  1
  C  C133  1  0.52945000  0.55443000  0.24997000  1
  C  C134  1  0.52945000  0.94557000  0.74997000  1
  C  C135  1  0.47055000  0.44557000  0.75003000  1
  H  H136  1  0.50280000  0.00190000  0.27730000  1
  H  H137  1  0.49720000  0.50190000  0.22270000  1
  H  H138  1  0.49720000  0.00000000  0.72270000  1
  H  H139  1  0.50280000  0.49810000  0.77730000  1
  C  C164  1  0.56794000  0.31123000  0.21913000  1
  C  C165  1  0.43206000  0.81123000  0.28087000  1
  C  C166  1  0.43206000  0.68877000  0.78087000  1
  C  C167  1  0.56794000  0.18877000  0.71913000  1
  C  C168  1  0.30864000  0.29014000  0.12803000  1
  C  C169  1  0.69136000  0.79014000  0.37197000  1
  C  C170  1  0.69136000  0.70986000  0.87197000  1
  C  C171  1  0.30864000  0.20986000  0.62803000  1
  C  C172  1  0.77385000  0.31384000  0.03803000  1
  C  C173  1  0.22615000  0.81384000  0.46197000  1
  C  C174  1  0.22615000  0.68616000  0.96197000  1
  C  C175  1  0.77385000  0.18616000  0.53803000  1
  H  H176  1  0.73980000  0.29830000  0.99040000  1
  H  H177  1  0.26020000  0.79830000  0.50960000  1
  H  H178  1  0.26020000  0.70170000  0.00960000  1
  H  H179  1  0.73980000  0.20170000  0.49040000  1
  H  H180  1  0.77790000  0.25640000  0.06580000  1
  H  H181  1  0.22210000  0.75640000  0.43420000  1
  H  H182  1  0.22210000  0.74360000  0.93420000  1
  H  H183  1  0.77790000  0.24360000  0.56580000  1
  H  H184  1  0.71970000  0.36030000  0.05490000  1
  H  H185  1  0.28030000  0.86030000  0.44510000  1
  H  H186  1  0.28030000  0.63970000  0.94510000  1
  H  H187  1  0.71970000  0.13970000  0.55490000  1
  C  C188  1  0.90505000  0.35494000  0.04243000  1
  C  C189  1  0.09495000  0.85494000  0.45757000  1
  C  C190  1  0.09495000  0.64506000  0.95757000  1
  C  C191  1  0.90505000  0.14506000  0.54243000  1
