# generated using pymatgen
data_CuH10(C9O2)2
_symmetry_space_group_name_H-M   'P 1'
_cell_length_a   23.35523290
_cell_length_b   23.35523290
_cell_length_c   23.35523290
_cell_angle_alpha   109.47122063
_cell_angle_beta   109.47122063
_cell_angle_gamma   109.47122063
_symmetry_Int_Tables_number   1
_chemical_formula_structural   CuH10(C9O2)2
_chemical_formula_sum   'Cu12 H120 C216 O48'
_cell_volume   9806.87673212
_cell_formula_units_Z   12
loop_
 _symmetry_equiv_pos_site_id
 _symmetry_equiv_pos_as_xyz
  1  'x, y, z'
loop_
 _atom_site_type_symbol
 _atom_site_label
 _atom_site_symmetry_multiplicity
 _atom_site_fract_x
 _atom_site_fract_y
 _atom_site_fract_z
 _atom_site_occupancy
  C  C120  1  0.43984000  0.09690000  0.94790000  1.0
  C  C121  1  0.49194000  0.05210000  0.14900000  1.0
  C  C122  1  0.34294000  0.85100000  0.90310000  1.0
  C  C123  1  0.65706000  0.56016000  0.50806000  1.0
  C  C124  1  0.90310000  0.34294000  0.85100000  1.0
  C  C125  1  0.05210000  0.14900000  0.49194000  1.0
  C  C126  1  0.50806000  0.65706000  0.56016000  1.0
  C  C127  1  0.09690000  0.94790000  0.43984000  1.0
  C  C128  1  0.94790000  0.43984000  0.09690000  1.0
  C  C129  1  0.56016000  0.50806000  0.65706000  1.0
  C  C130  1  0.14900000  0.49194000  0.05210000  1.0
  C  C131  1  0.85100000  0.90310000  0.34294000  1.0
  C  C144  1  0.56016000  0.90310000  0.05210000  1.0
  C  C145  1  0.50806000  0.94790000  0.85100000  1.0
  C  C146  1  0.65706000  0.14900000  0.09690000  1.0
  C  C147  1  0.34294000  0.43984000  0.49194000  1.0
  C  C148  1  0.09690000  0.65706000  0.14900000  1.0
  C  C149  1  0.94790000  0.85100000  0.50806000  1.0
  C  C150  1  0.49194000  0.34294000  0.43984000  1.0
  C  C151  1  0.90310000  0.05210000  0.56016000  1.0
  C  C152  1  0.05210000  0.56016000  0.90310000  1.0
  C  C153  1  0.43984000  0.49194000  0.34294000  1.0
  C  C154  1  0.85100000  0.50806000  0.94790000  1.0
  C  C155  1  0.14900000  0.09690000  0.65706000  1.0
  C  C168  1  0.49254000  0.24020000  0.87170000  1.0
  C  C169  1  0.62084000  0.12830000  0.36850000  1.0
  C  C170  1  0.25234000  0.63150000  0.75980000  1.0
  C  C171  1  0.74766000  0.50746000  0.37916000  1.0
  C  C172  1  0.75980000  0.25234000  0.63150000  1.0
  C  C173  1  0.12830000  0.36850000  0.62084000  1.0
  C  C174  1  0.37916000  0.74766000  0.50746000  1.0
  C  C175  1  0.24020000  0.87170000  0.49254000  1.0
  C  C176  1  0.87170000  0.49254000  0.24020000  1.0
  C  C177  1  0.50746000  0.37916000  0.74766000  1.0
  C  C178  1  0.36850000  0.62084000  0.12830000  1.0
  C  C179  1  0.63150000  0.75980000  0.25234000  1.0
  C  C192  1  0.50746000  0.75980000  0.12830000  1.0
  C  C193  1  0.37916000  0.87170000  0.63150000  1.0
  C  C194  1  0.74766000  0.36850000  0.24020000  1.0
  C  C195  1  0.25234000  0.49254000  0.62084000  1.0
  C  C196  1  0.24020000  0.74766000  0.36850000  1.0
  C  C197  1  0.87170000  0.63150000  0.37916000  1.0
  C  C198  1  0.62084000  0.25234000  0.49254000  1.0
  C  C199  1  0.75980000  0.12830000  0.50746000  1.0
  C  C200  1  0.12830000  0.50746000  0.75980000  1.0
  C  C201  1  0.49254000  0.62084000  0.25234000  1.0
  C  C202  1  0.63150000  0.37916000  0.87170000  1.0
  C  C203  1  0.36850000  0.24020000  0.74766000  1.0
  C  C216  1  0.46654000  0.21060000  0.95750000  1.0
  C  C217  1  0.50904000  0.04250000  0.25310000  1.0
  C  C218  1  0.25594000  0.74690000  0.78940000  1.0
  C  C219  1  0.74406000  0.53346000  0.49096000  1.0
  C  C220  1  0.78940000  0.25594000  0.74690000  1.0
  C  C221  1  0.04250000  0.25310000  0.50904000  1.0
  C  C222  1  0.49096000  0.74406000  0.53346000  1.0
  C  C223  1  0.21060000  0.95750000  0.46654000  1.0
  C  C224  1  0.95750000  0.46654000  0.21060000  1.0
  C  C225  1  0.53346000  0.49096000  0.74406000  1.0
  C  C226  1  0.25310000  0.50904000  0.04250000  1.0
  C  C227  1  0.74690000  0.78940000  0.25594000  1.0
  C  C240  1  0.53346000  0.78940000  0.04250000  1.0
  C  C241  1  0.49096000  0.95750000  0.74690000  1.0
  C  C242  1  0.74406000  0.25310000  0.21060000  1.0
  C  C243  1  0.25594000  0.46654000  0.50904000  1.0
  C  C244  1  0.21060000  0.74406000  0.25310000  1.0
  C  C245  1  0.95750000  0.74690000  0.49096000  1.0
  C  C246  1  0.50904000  0.25594000  0.46654000  1.0
  C  C247  1  0.78940000  0.04250000  0.53346000  1.0
  C  C248  1  0.04250000  0.53346000  0.78940000  1.0
  C  C249  1  0.46654000  0.50904000  0.25594000  1.0
  C  C250  1  0.74690000  0.49096000  0.95750000  1.0
  C  C251  1  0.25310000  0.21060000  0.74406000  1.0
  C  C312  1  0.44954000  0.07850000  0.88860000  1.0
  C  C313  1  0.56094000  0.11140000  0.18990000  1.0
  C  C314  1  0.37104000  0.81010000  0.92150000  1.0
  C  C315  1  0.62896000  0.55046000  0.43906000  1.0
  C  C316  1  0.92150000  0.37104000  0.81010000  1.0
  C  C317  1  0.11140000  0.18990000  0.56094000  1.0
  C  C318  1  0.43906000  0.62896000  0.55046000  1.0
  C  C319  1  0.07850000  0.88860000  0.44954000  1.0
  C  C320  1  0.88860000  0.44954000  0.07850000  1.0
  C  C321  1  0.55046000  0.43906000  0.62896000  1.0
  C  C322  1  0.18990000  0.56094000  0.11140000  1.0
  C  C323  1  0.81010000  0.92150000  0.37104000  1.0
  C  C336  1  0.55046000  0.92150000  0.11140000  1.0
  C  C337  1  0.43906000  0.88860000  0.81010000  1.0
  C  C338  1  0.62896000  0.18990000  0.07850000  1.0
  C  C339  1  0.37104000  0.44954000  0.56094000  1.0
  C  C340  1  0.07850000  0.62896000  0.18990000  1.0
  C  C341  1  0.88860000  0.81010000  0.43906000  1.0
  C  C342  1  0.56094000  0.37104000  0.44954000  1.0
  C  C343  1  0.92150000  0.11140000  0.55046000  1.0
  C  C344  1  0.11140000  0.55046000  0.92150000  1.0
  C  C345  1  0.44954000  0.56094000  0.37104000  1.0
  C  C346  1  0.81010000  0.43906000  0.88860000  1.0
  C  C347  1  0.18990000  0.07850000  0.62896000  1.0
  C  C408  1  0.44904000  0.16360000  0.98220000  1.0
  C  C409  1  0.46684000  0.01780000  0.18140000  1.0
  C  C410  1  0.28544000  0.81860000  0.83640000  1.0
  C  C411  1  0.71456000  0.55096000  0.53316000  1.0
  C  C412  1  0.83640000  0.28544000  0.81860000  1.0
  C  C413  1  0.01780000  0.18140000  0.46684000  1.0
  C  C414  1  0.53316000  0.71456000  0.55096000  1.0
  C  C415  1  0.16360000  0.98220000  0.44904000  1.0
  C  C416  1  0.98220000  0.44904000  0.16360000  1.0
  C  C417  1  0.55096000  0.53316000  0.71456000  1.0
  C  C418  1  0.18140000  0.46684000  0.01780000  1.0
  C  C419  1  0.81860000  0.83640000  0.28544000  1.0
  C  C432  1  0.55096000  0.83640000  0.01780000  1.0
  C  C433  1  0.53316000  0.98220000  0.81860000  1.0
  C  C434  1  0.71456000  0.18140000  0.16360000  1.0
  C  C435  1  0.28544000  0.44904000  0.46684000  1.0
  C  C436  1  0.16360000  0.71456000  0.18140000  1.0
  C  C437  1  0.98220000  0.81860000  0.53316000  1.0
  C  C438  1  0.46684000  0.28544000  0.44904000  1.0
  C  C439  1  0.83640000  0.01780000  0.55096000  1.0
  C  C440  1  0.01780000  0.55096000  0.83640000  1.0
  C  C441  1  0.44904000  0.46684000  0.28544000  1.0
  C  C442  1  0.81860000  0.53316000  0.98220000  1.0
  C  C443  1  0.18140000  0.16360000  0.71456000  1.0
  C  C504  1  0.46834000  0.12650000  0.86660000  1.0
  C  C505  1  0.60174000  0.13340000  0.25990000  1.0
  C  C506  1  0.34184000  0.74010000  0.87350000  1.0
  C  C507  1  0.65816000  0.53166000  0.39826000  1.0
  C  C508  1  0.87350000  0.34184000  0.74010000  1.0
  C  C509  1  0.13340000  0.25990000  0.60174000  1.0
  C  C510  1  0.39826000  0.65816000  0.53166000  1.0
  C  C511  1  0.12650000  0.86660000  0.46834000  1.0
  C  C512  1  0.86660000  0.46834000  0.12650000  1.0
  C  C513  1  0.53166000  0.39826000  0.65816000  1.0
  C  C514  1  0.25990000  0.60174000  0.13340000  1.0
  C  C515  1  0.74010000  0.87350000  0.34184000  1.0
  C  C528  1  0.53166000  0.87350000  0.13340000  1.0
  C  C529  1  0.39826000  0.86660000  0.74010000  1.0
  C  C530  1  0.65816000  0.25990000  0.12650000  1.0
  C  C531  1  0.34184000  0.46834000  0.60174000  1.0
  C  C532  1  0.12650000  0.65816000  0.25990000  1.0
  C  C533  1  0.86660000  0.74010000  0.39826000  1.0
  C  C534  1  0.60174000  0.34184000  0.46834000  1.0
  C  C535  1  0.87350000  0.13340000  0.53166000  1.0
  C  C536  1  0.13340000  0.53166000  0.87350000  1.0
  C  C537  1  0.46834000  0.60174000  0.34184000  1.0
  C  C538  1  0.74010000  0.39826000  0.86660000  1.0
  C  C539  1  0.25990000  0.12650000  0.65816000  1.0
  C  C600  1  0.38624000  0.97510000  0.92810000  1.0
  C  C601  1  0.45814000  0.07190000  0.04700000  1.0
  C  C602  1  0.41114000  0.95300000  0.02490000  1.0
  C  C603  1  0.58886000  0.61376000  0.54186000  1.0
  C  C604  1  0.02490000  0.41114000  0.95300000  1.0
  C  C605  1  0.07190000  0.04700000  0.45814000  1.0
  C  C606  1  0.54186000  0.58886000  0.61376000  1.0
  C  C607  1  0.97510000  0.92810000  0.38624000  1.0
  C  C608  1  0.92810000  0.38624000  0.97510000  1.0
  C  C609  1  0.61376000  0.54186000  0.58886000  1.0
  C  C610  1  0.04700000  0.45814000  0.07190000  1.0
  C  C611  1  0.95300000  0.02490000  0.41114000  1.0
  C  C624  1  0.61376000  0.02490000  0.07190000  1.0
  C  C625  1  0.54186000  0.92810000  0.95300000  1.0
  C  C626  1  0.58886000  0.04700000  0.97510000  1.0
  C  C627  1  0.41114000  0.38624000  0.45814000  1.0
  C  C628  1  0.97510000  0.58886000  0.04700000  1.0
  C  C629  1  0.92810000  0.95300000  0.54186000  1.0
  C  C630  1  0.45814000  0.41114000  0.38624000  1.0
  C  C631  1  0.02490000  0.07190000  0.61376000  1.0
  C  C632  1  0.07190000  0.61376000  0.02490000  1.0
  C  C633  1  0.38624000  0.45814000  0.41114000  1.0
  C  C634  1  0.95300000  0.54186000  0.92810000  1.0
  C  C635  1  0.04700000  0.97510000  0.58886000  1.0
  C  C696  1  0.47684000  0.19210000  0.90010000  1.0
  C  C697  1  0.57674000  0.09990000  0.29200000  1.0
  C  C698  1  0.28474000  0.70800000  0.80790000  1.0
  C  C699  1  0.71526000  0.52316000  0.42326000  1.0
  C  C700  1  0.80790000  0.28474000  0.70800000  1.0
  C  C701  1  0.09990000  0.29200000  0.57674000  1.0
  C  C702  1  0.42326000  0.71526000  0.52316000  1.0
  C  C703  1  0.19210000  0.90010000  0.47684000  1.0
  C  C704  1  0.90010000  0.47684000  0.19210000  1.0
  C  C705  1  0.52316000  0.42326000  0.71526000  1.0
  C  C706  1  0.29200000  0.57674000  0.09990000  1.0
  C  C707  1  0.70800000  0.80790000  0.28474000  1.0
  C  C720  1  0.52316000  0.80790000  0.09990000  1.0
  C  C721  1  0.42326000  0.90010000  0.70800000  1.0
  C  C722  1  0.71526000  0.29200000  0.19210000  1.0
  C  C723  1  0.28474000  0.47684000  0.57674000  1.0
  C  C724  1  0.19210000  0.71526000  0.29200000  1.0
  C  C725  1  0.90010000  0.70800000  0.42326000  1.0
  C  C726  1  0.57674000  0.28474000  0.47684000  1.0
  C  C727  1  0.80790000  0.09990000  0.52316000  1.0
  C  C728  1  0.09990000  0.52316000  0.80790000  1.0
  C  C729  1  0.47684000  0.57674000  0.28474000  1.0
  C  C730  1  0.70800000  0.42326000  0.90010000  1.0
  C  C731  1  0.29200000  0.19210000  0.71526000  1.0
  C  C744  1  0.42664000  0.04720000  0.97480000  1.0
  C  C745  1  0.45184000  0.02520000  0.07240000  1.0
  C  C746  1  0.37944000  0.92760000  0.95280000  1.0
  C  C747  1  0.62056000  0.57336000  0.54816000  1.0
  C  C748  1  0.95280000  0.37944000  0.92760000  1.0
  C  C749  1  0.02520000  0.07240000  0.45184000  1.0
  C  C750  1  0.54816000  0.62056000  0.57336000  1.0
  C  C751  1  0.04720000  0.97480000  0.42664000  1.0
  C  C752  1  0.97480000  0.42664000  0.04720000  1.0
  C  C753  1  0.57336000  0.54816000  0.62056000  1.0
  C  C754  1  0.07240000  0.45184000  0.02520000  1.0
  C  C755  1  0.92760000  0.95280000  0.37944000  1.0
  C  C768  1  0.57336000  0.95280000  0.02520000  1.0
  C  C769  1  0.54816000  0.97480000  0.92760000  1.0
  C  C770  1  0.62056000  0.07240000  0.04720000  1.0
  C  C771  1  0.37944000  0.42664000  0.45184000  1.0
  C  C772  1  0.04720000  0.62056000  0.07240000  1.0
  C  C773  1  0.97480000  0.92760000  0.54816000  1.0
  C  C774  1  0.45184000  0.37944000  0.42664000  1.0
  C  C775  1  0.95280000  0.02520000  0.57336000  1.0
  C  C776  1  0.02520000  0.57336000  0.95280000  1.0
  C  C777  1  0.42664000  0.45184000  0.37944000  1.0
  C  C778  1  0.92760000  0.54816000  0.97480000  1.0
  C  C779  1  0.07240000  0.04720000  0.62056000  1.0
  Cu  Cu0  1  0.50000000  0.35602500  0.85602500  1.0
  Cu  Cu1  1  0.64397500  0.14397500  0.50000000  1.0
  Cu  Cu2  1  0.14397500  0.50000000  0.64397500  1.0
  Cu  Cu3  1  0.85602500  0.50000000  0.35602500  1.0
  Cu  Cu4  1  0.35602500  0.85602500  0.50000000  1.0
  Cu  Cu5  1  0.50000000  0.64397500  0.14397500  1.0
  Cu  Cu12  1  0.50000000  0.25989500  0.75989500  1.0
  Cu  Cu13  1  0.74010500  0.24010500  0.50000000  1.0
  Cu  Cu14  1  0.24010500  0.50000000  0.74010500  1.0
  Cu  Cu15  1  0.75989500  0.50000000  0.25989500  1.0
  Cu  Cu16  1  0.25989500  0.75989500  0.50000000  1.0
  Cu  Cu17  1  0.50000000  0.74010500  0.24010500  1.0
  H  H264  1  0.47120000  0.25450000  0.97970000  1.0
  H  H265  1  0.49150000  0.02030000  0.27480000  1.0
  H  H266  1  0.21670000  0.72520000  0.74550000  1.0
  H  H267  1  0.78330000  0.52880000  0.50850000  1.0
  H  H268  1  0.74550000  0.21670000  0.72520000  1.0
  H  H269  1  0.02030000  0.27480000  0.49150000  1.0
  H  H270  1  0.50850000  0.78330000  0.52880000  1.0
  H  H271  1  0.25450000  0.97970000  0.47120000  1.0
  H  H272  1  0.97970000  0.47120000  0.25450000  1.0
  H  H273  1  0.52880000  0.50850000  0.78330000  1.0
  H  H274  1  0.27480000  0.49150000  0.02030000  1.0
  H  H275  1  0.72520000  0.74550000  0.21670000  1.0
  H  H288  1  0.52880000  0.74550000  0.02030000  1.0
  H  H289  1  0.50850000  0.97970000  0.72520000  1.0
  H  H290  1  0.78330000  0.27480000  0.25450000  1.0
  H  H291  1  0.21670000  0.47120000  0.49150000  1.0
  H  H292  1  0.25450000  0.78330000  0.27480000  1.0
  H  H293  1  0.97970000  0.72520000  0.50850000  1.0
  H  H294  1  0.49150000  0.21670000  0.47120000  1.0
  H  H295  1  0.74550000  0.02030000  0.52880000  1.0
  H  H296  1  0.02030000  0.52880000  0.74550000  1.0
  H  H297  1  0.47120000  0.49150000  0.21670000  1.0
  H  H298  1  0.72520000  0.50850000  0.97970000  1.0
  H  H299  1  0.27480000  0.25450000  0.78330000  1.0
  H  H360  1  0.44330000  0.03420000  0.86470000  1.0
  H  H361  1  0.57860000  0.13530000  0.16950000  1.0
  H  H362  1  0.40910000  0.83050000  0.96580000  1.0
  H  H363  1  0.59090000  0.55670000  0.42140000  1.0
  H  H364  1  0.96580000  0.40910000  0.83050000  1.0
  H  H365  1  0.13530000  0.16950000  0.57860000  1.0
  H  H366  1  0.42140000  0.59090000  0.55670000  1.0
  H  H367  1  0.03420000  0.86470000  0.44330000  1.0
  H  H368  1  0.86470000  0.44330000  0.03420000  1.0
  H  H369  1  0.55670000  0.42140000  0.59090000  1.0
  H  H370  1  0.16950000  0.57860000  0.13530000  1.0
  H  H371  1  0.83050000  0.96580000  0.40910000  1.0
  H  H384  1  0.55670000  0.96580000  0.13530000  1.0
  H  H385  1  0.42140000  0.86470000  0.83050000  1.0
  H  H386  1  0.59090000  0.16950000  0.03420000  1.0
  H  H387  1  0.40910000  0.44330000  0.57860000  1.0
  H  H388  1  0.03420000  0.59090000  0.16950000  1.0
  H  H389  1  0.86470000  0.83050000  0.42140000  1.0
  H  H390  1  0.57860000  0.40910000  0.44330000  1.0
  H  H391  1  0.96580000  0.13530000  0.55670000  1.0
  H  H392  1  0.13530000  0.55670000  0.96580000  1.0
  H  H393  1  0.44330000  0.57860000  0.40910000  1.0
  H  H394  1  0.83050000  0.42140000  0.86470000  1.0
  H  H395  1  0.16950000  0.03420000  0.59090000  1.0
  H  H456  1  0.44360000  0.17710000  0.02150000  1.0
  H  H457  1  0.42210000  0.97850000  0.15560000  1.0
  H  H458  1  0.26650000  0.84440000  0.82290000  1.0
  H  H459  1  0.73350000  0.55640000  0.57790000  1.0
  H  H460  1  0.82290000  0.26650000  0.84440000  1.0
  H  H461  1  0.97850000  0.15560000  0.42210000  1.0
  H  H462  1  0.57790000  0.73350000  0.55640000  1.0
  H  H463  1  0.17710000  0.02150000  0.44360000  1.0
  H  H464  1  0.02150000  0.44360000  0.17710000  1.0
  H  H465  1  0.55640000  0.57790000  0.73350000  1.0
  H  H466  1  0.15560000  0.42210000  0.97850000  1.0
  H  H467  1  0.84440000  0.82290000  0.26650000  1.0
  H  H480  1  0.55640000  0.82290000  0.97850000  1.0
  H  H481  1  0.57790000  0.02150000  0.84440000  1.0
  H  H482  1  0.73350000  0.15560000  0.17710000  1.0
  H  H483  1  0.26650000  0.44360000  0.42210000  1.0
  H  H484  1  0.17710000  0.73350000  0.15560000  1.0
  H  H485  1  0.02150000  0.84440000  0.57790000  1.0
  H  H486  1  0.42210000  0.26650000  0.44360000  1.0
  H  H487  1  0.82290000  0.97850000  0.55640000  1.0
  H  H488  1  0.97850000  0.55640000  0.82290000  1.0
  H  H489  1  0.44360000  0.42210000  0.26650000  1.0
  H  H490  1  0.84440000  0.57790000  0.02150000  1.0
  H  H491  1  0.15560000  0.17710000  0.73350000  1.0
  H  H552  1  0.47550000  0.11410000  0.82840000  1.0
  H  H553  1  0.64710000  0.17160000  0.28570000  1.0
  H  H554  1  0.36140000  0.71430000  0.88590000  1.0
  H  H555  1  0.63860000  0.52450000  0.35290000  1.0
  H  H556  1  0.88590000  0.36140000  0.71430000  1.0
  H  H557  1  0.17160000  0.28570000  0.64710000  1.0
  H  H558  1  0.35290000  0.63860000  0.52450000  1.0
  H  H559  1  0.11410000  0.82840000  0.47550000  1.0
  H  H560  1  0.82840000  0.47550000  0.11410000  1.0
  H  H561  1  0.52450000  0.35290000  0.63860000  1.0
  H  H562  1  0.28570000  0.64710000  0.17160000  1.0
  H  H563  1  0.71430000  0.88590000  0.36140000  1.0
  H  H576  1  0.52450000  0.88590000  0.17160000  1.0
  H  H577  1  0.35290000  0.82840000  0.71430000  1.0
  H  H578  1  0.63860000  0.28570000  0.11410000  1.0
  H  H579  1  0.36140000  0.47550000  0.64710000  1.0
  H  H580  1  0.11410000  0.63860000  0.28570000  1.0
  H  H581  1  0.82840000  0.71430000  0.35290000  1.0
  H  H582  1  0.64710000  0.36140000  0.47550000  1.0
  H  H583  1  0.88590000  0.17160000  0.52450000  1.0
  H  H584  1  0.17160000  0.52450000  0.88590000  1.0
  H  H585  1  0.47550000  0.64710000  0.36140000  1.0
  H  H586  1  0.71430000  0.35290000  0.82840000  1.0
  H  H587  1  0.28570000  0.11410000  0.63860000  1.0
  H  H648  1  0.36350000  0.95840000  0.88010000  1.0
  H  H649  1  0.48340000  0.11990000  0.07830000  1.0
  H  H650  1  0.40510000  0.92170000  0.04160000  1.0
  H  H651  1  0.59490000  0.63650000  0.51660000  1.0
  H  H652  1  0.04160000  0.40510000  0.92170000  1.0
  H  H653  1  0.11990000  0.07830000  0.48340000  1.0
  H  H654  1  0.51660000  0.59490000  0.63650000  1.0
  H  H655  1  0.95840000  0.88010000  0.36350000  1.0
  H  H656  1  0.88010000  0.36350000  0.95840000  1.0
  H  H657  1  0.63650000  0.51660000  0.59490000  1.0
  H  H658  1  0.07830000  0.48340000  0.11990000  1.0
  H  H659  1  0.92170000  0.04160000  0.40510000  1.0
  H  H672  1  0.63650000  0.04160000  0.11990000  1.0
  H  H673  1  0.51660000  0.88010000  0.92170000  1.0
  H  H674  1  0.59490000  0.07830000  0.95840000  1.0
  H  H675  1  0.40510000  0.36350000  0.48340000  1.0
  H  H676  1  0.95840000  0.59490000  0.07830000  1.0
  H  H677  1  0.88010000  0.92170000  0.51660000  1.0
  H  H678  1  0.48340000  0.40510000  0.36350000  1.0
  H  H679  1  0.04160000  0.11990000  0.63650000  1.0
  H  H680  1  0.11990000  0.63650000  0.04160000  1.0
  H  H681  1  0.36350000  0.48340000  0.40510000  1.0
  H  H682  1  0.92170000  0.51660000  0.88010000  1.0
  H  H683  1  0.07830000  0.95840000  0.59490000  1.0
  O  O24  1  0.49785280  0.29867980  0.90153000  1.0
  O  O25  1  0.59632280  0.09847000  0.39714980  1.0
  O  O26  1  0.19917300  0.60285020  0.70132020  1.0
  O  O27  1  0.80082700  0.50214720  0.40367720  1.0
  O  O28  1  0.70132020  0.19917300  0.60285020  1.0
  O  O29  1  0.09847000  0.39714980  0.59632280  1.0
  O  O30  1  0.40367720  0.80082700  0.50214720  1.0
  O  O31  1  0.29867980  0.90153000  0.49785280  1.0
  O  O32  1  0.90153000  0.49785280  0.29867980  1.0
  O  O33  1  0.50214720  0.40367720  0.80082700  1.0
  O  O34  1  0.39714980  0.59632280  0.09847000  1.0
  O  O35  1  0.60285020  0.70132020  0.19917300  1.0
  O  O48  1  0.50214720  0.70132020  0.09847000  1.0
  O  O49  1  0.40367720  0.90153000  0.60285020  1.0
  O  O50  1  0.80082700  0.39714980  0.29867980  1.0
  O  O51  1  0.19917300  0.49785280  0.59632280  1.0
  O  O52  1  0.29867980  0.80082700  0.39714980  1.0
  O  O53  1  0.90153000  0.60285020  0.40367720  1.0
  O  O54  1  0.59632280  0.19917300  0.49785280  1.0
  O  O55  1  0.70132020  0.09847000  0.50214720  1.0
  O  O56  1  0.09847000  0.50214720  0.70132020  1.0
  O  O57  1  0.49785280  0.59632280  0.19917300  1.0
  O  O58  1  0.60285020  0.40367720  0.90153000  1.0
  O  O59  1  0.39714980  0.29867980  0.80082700  1.0
  O  O72  1  0.49755330  0.21742000  0.81801010  1.0
  O  O73  1  0.67954320  0.18198990  0.39940990  1.0
  O  O74  1  0.28013330  0.60059010  0.78258000  1.0
  O  O75  1  0.71986670  0.50244670  0.32045680  1.0
  O  O76  1  0.78258000  0.28013330  0.60059010  1.0
  O  O77  1  0.18198990  0.39940990  0.67954320  1.0
  O  O78  1  0.32045680  0.71986670  0.50244670  1.0
  O  O79  1  0.21742000  0.81801010  0.49755330  1.0
  O  O80  1  0.81801010  0.49755330  0.21742000  1.0
  O  O81  1  0.50244670  0.32045680  0.71986670  1.0
  O  O82  1  0.39940990  0.67954320  0.18198990  1.0
  O  O83  1  0.60059010  0.78258000  0.28013330  1.0
  O  O96  1  0.50244670  0.78258000  0.18198990  1.0
  O  O97  1  0.32045680  0.81801010  0.60059010  1.0
  O  O98  1  0.71986670  0.39940990  0.21742000  1.0
  O  O99  1  0.28013330  0.49755330  0.67954320  1.0
  O  O100  1  0.21742000  0.71986670  0.39940990  1.0
  O  O101  1  0.81801010  0.60059010  0.32045680  1.0
  O  O102  1  0.67954320  0.28013330  0.49755330  1.0
  O  O103  1  0.78258000  0.18198990  0.50244670  1.0
  O  O104  1  0.18198990  0.50244670  0.78258000  1.0
  O  O105  1  0.49755330  0.67954320  0.28013330  1.0
  O  O106  1  0.60059010  0.32045680  0.81801010  1.0
  O  O107  1  0.39940990  0.21742000  0.71986670  1.0
