# generated using pymatgen
data_InH12C8NO8
_symmetry_space_group_name_H-M   'P 1'
_cell_length_a   29.41110000
_cell_length_b   29.41110000
_cell_length_c   8.11630000
_cell_angle_alpha   90.00000000
_cell_angle_beta   90.00000000
_cell_angle_gamma   120.00000000
_symmetry_Int_Tables_number   1
_chemical_formula_structural   InH12C8NO8
_cell_volume   6080.10750956
_cell_formula_units_Z   18
loop_
 _symmetry_equiv_pos_site_id
 _symmetry_equiv_pos_as_xyz
  1  'x, y, z'
loop_
 _atom_site_type_symbol
 _atom_site_label
 _atom_site_symmetry_multiplicity
 _atom_site_fract_x
 _atom_site_fract_y
 _atom_site_fract_z
 _atom_site_occupancy
  In  In0  1  0.37711313  0.32290318  0.39885400  1
  In  In1  1  0.67709682  0.05420995  0.39885400  1
  In  In2  1  0.94579005  0.62288687  0.39885400  1
  In  In3  1  0.04377980  0.65623651  0.73218733  1
  In  In4  1  0.34376349  0.38754328  0.73218733  1
  In  In5  1  0.61245672  0.95622020  0.73218733  1
  In  In6  1  0.71044646  0.98956985  0.06552067  1
  In  In7  1  0.01043015  0.72087662  0.06552067  1
  In  In8  1  0.27912338  0.28955354  0.06552067  1
  In  In9  1  0.62288687  0.67709682  0.60114600  1
  In  In10  1  0.32290318  0.94579005  0.60114600  1
  In  In11  1  0.05420995  0.37711313  0.60114600  1
  In  In12  1  0.95622020  0.34376349  0.26781267  1
  In  In13  1  0.65623651  0.61245672  0.26781267  1
  In  In14  1  0.38754328  0.04377980  0.26781267  1
  In  In15  1  0.28955354  0.01043015  0.93447933  1
  In  In16  1  0.98956985  0.27912338  0.93447933  1
  In  In17  1  0.72087662  0.71044646  0.93447933  1
  O  O18  1  0.31772140  0.24090200  0.37144000  1
  O  O19  1  0.75909800  0.07681940  0.37144000  1
  O  O20  1  0.92318060  0.68227860  0.37144000  1
  O  O21  1  0.98438807  0.57423533  0.70477333  1
  O  O22  1  0.42576467  0.41015273  0.70477333  1
  O  O23  1  0.58984727  0.01561193  0.70477333  1
  O  O24  1  0.65105473  0.90756867  0.03810667  1
  O  O25  1  0.09243133  0.74348607  0.03810667  1
  O  O26  1  0.25651393  0.34894527  0.03810667  1
  O  O27  1  0.68227860  0.75909800  0.62856000  1
  O  O28  1  0.24090200  0.92318060  0.62856000  1
  O  O29  1  0.07681940  0.31772140  0.62856000  1
  O  O30  1  0.01561193  0.42576467  0.29522667  1
  O  O31  1  0.57423533  0.58984727  0.29522667  1
  O  O32  1  0.41015273  0.98438807  0.29522667  1
  O  O33  1  0.34894527  0.09243133  0.96189333  1
  O  O34  1  0.90756867  0.25651393  0.96189333  1
  O  O35  1  0.74348607  0.65105473  0.96189333  1
  O  O36  1  0.28222140  0.21903200  0.11794000  1
  O  O37  1  0.78096800  0.06318940  0.11794000  1
  O  O38  1  0.93681060  0.71777860  0.11794000  1
  O  O39  1  0.94888807  0.55236533  0.45127333  1
  O  O40  1  0.44763467  0.39652273  0.45127333  1
  O  O41  1  0.60347727  0.05111193  0.45127333  1
  O  O42  1  0.61555473  0.88569867  0.78460667  1
  O  O43  1  0.11430133  0.72985607  0.78460667  1
  O  O44  1  0.27014393  0.38444527  0.78460667  1
  O  O45  1  0.71777860  0.78096800  0.88206000  1
  O  O46  1  0.21903200  0.93681060  0.88206000  1
  O  O47  1  0.06318940  0.28222140  0.88206000  1
  O  O48  1  0.05111193  0.44763467  0.54872667  1
  O  O49  1  0.55236533  0.60347727  0.54872667  1
  O  O50  1  0.39652273  0.94888807  0.54872667  1
  O  O51  1  0.38444527  0.11430133  0.21539333  1
  O  O52  1  0.88569867  0.27014393  0.21539333  1
  O  O53  1  0.72985607  0.61555473  0.21539333  1
  O  O54  1  0.27994140  0.03686190  0.69244000  1
  O  O55  1  0.96313810  0.24307950  0.69244000  1
  O  O56  1  0.75692050  0.72005860  0.69244000  1
  O  O57  1  0.94660807  0.37019523  0.02577333  1
  O  O58  1  0.62980477  0.57641283  0.02577333  1
  O  O59  1  0.42358717  0.05339193  0.02577333  1
  O  O60  1  0.61327473  0.70352857  0.35910667  1
  O  O61  1  0.29647143  0.90974617  0.35910667  1
  O  O62  1  0.09025383  0.38672527  0.35910667  1
  O  O63  1  0.72005860  0.96313810  0.30756000  1
  O  O64  1  0.03686190  0.75692050  0.30756000  1
  O  O65  1  0.24307950  0.27994140  0.30756000  1
  O  O66  1  0.05339193  0.62980477  0.97422667  1
  O  O67  1  0.37019523  0.42358717  0.97422667  1
  O  O68  1  0.57641283  0.94660807  0.97422667  1
  O  O69  1  0.38672527  0.29647143  0.64089333  1
  O  O70  1  0.70352857  0.09025383  0.64089333  1
  O  O71  1  0.90974617  0.61327473  0.64089333  1
  O  O72  1  0.24612000  0.08584260  0.77055000  1
  O  O73  1  0.91415740  0.16027740  0.77055000  1
  O  O74  1  0.83972260  0.75388000  0.77055000  1
  O  O75  1  0.91278667  0.41917593  0.10388333  1
  O  O76  1  0.58082407  0.49361073  0.10388333  1
  O  O77  1  0.50638927  0.08721333  0.10388333  1
  O  O78  1  0.57945333  0.75250927  0.43721667  1
  O  O79  1  0.24749073  0.82694407  0.43721667  1
  O  O80  1  0.17305593  0.42054667  0.43721667  1
  O  O81  1  0.75388000  0.91415740  0.22945000  1
  O  O82  1  0.08584260  0.83972260  0.22945000  1
  O  O83  1  0.16027740  0.24612000  0.22945000  1
  O  O84  1  0.08721333  0.58082407  0.89611667  1
  O  O85  1  0.41917593  0.50638927  0.89611667  1
  O  O86  1  0.49361073  0.91278667  0.89611667  1
  O  O87  1  0.42054667  0.24749073  0.56278333  1
  O  O88  1  0.75250927  0.17305593  0.56278333  1
  O  O89  1  0.82694407  0.57945333  0.56278333  1
  O  O90  1  0.35387130  0.33745180  0.16994000  1
  O  O91  1  0.66254820  0.01641950  0.16994000  1
  O  O92  1  0.98358050  0.64612870  0.16994000  1
  O  O93  1  0.02053797  0.67078513  0.50327333  1
  O  O94  1  0.32921487  0.34975283  0.50327333  1
  O  O95  1  0.65024717  0.97946203  0.50327333  1
  O  O96  1  0.68720463  0.00411847  0.83660667  1
  O  O97  1  0.00000000  0.68308617  0.83660667  1
  O  O98  1  0.31691383  0.31279537  0.83660667  1
  O  O99  1  0.64612870  0.66254820  0.83006000  1
  O  O100  1  0.33745180  0.98358050  0.83006000  1
  O  O101  1  0.01641950  0.35387130  0.83006000  1
  O  O102  1  0.97946203  0.32921487  0.49672667  1
  O  O103  1  0.67078513  0.65024717  0.49672667  1
  O  O104  1  0.34975283  0.02053797  0.49672667  1
  O  O105  1  0.31279537  0.00000000  0.16339333  1
  O  O106  1  0.00411847  0.31691383  0.16339333  1
  O  O107  1  0.68308617  0.68720463  0.16339333  1
  H  H144  1  0.22670000  0.04480000  0.98860000  1
  H  H145  1  0.95520000  0.18190000  0.98860000  1
  H  H146  1  0.81810000  0.77330000  0.98860000  1
  H  H147  1  0.89336667  0.37813333  0.32193333  1
  H  H148  1  0.62186667  0.51523333  0.32193333  1
  H  H149  1  0.48476667  0.10663333  0.32193333  1
  H  H150  1  0.56003333  0.71146667  0.65526667  1
  H  H151  1  0.28853333  0.84856667  0.65526667  1
  H  H152  1  0.15143333  0.43996667  0.65526667  1
  H  H153  1  0.77330000  0.95520000  0.01140000  1
  H  H154  1  0.04480000  0.81810000  0.01140000  1
  H  H155  1  0.18190000  0.22670000  0.01140000  1
  H  H156  1  0.10663333  0.62186667  0.67806667  1
  H  H157  1  0.37813333  0.48476667  0.67806667  1
  H  H158  1  0.51523333  0.89336667  0.67806667  1
  H  H159  1  0.43996667  0.28853333  0.34473333  1
  H  H160  1  0.71146667  0.15143333  0.34473333  1
  H  H161  1  0.84856667  0.56003333  0.34473333  1
  H  H162  1  0.19980000  0.00000000  0.09800000  1
  H  H163  1  0.00110000  0.20090000  0.09800000  1
  H  H164  1  0.79910000  0.80020000  0.09800000  1
  H  H165  1  0.86646667  0.33223333  0.43133333  1
  H  H166  1  0.66776667  0.53423333  0.43133333  1
  H  H167  1  0.46576667  0.13353333  0.43133333  1
  H  H168  1  0.53313333  0.66556667  0.76466667  1
  H  H169  1  0.33443333  0.86756667  0.76466667  1
  H  H170  1  0.13243333  0.46686667  0.76466667  1
  H  H171  1  0.80020000  0.00110000  0.90200000  1
  H  H172  1  0.00000000  0.79910000  0.90200000  1
  H  H173  1  0.20090000  0.19980000  0.90200000  1
  H  H174  1  0.13353333  0.66776667  0.56866667  1
  H  H175  1  0.33223333  0.46576667  0.56866667  1
  H  H176  1  0.53423333  0.86646667  0.56866667  1
  H  H177  1  0.46686667  0.33443333  0.23533333  1
  H  H178  1  0.66556667  0.13243333  0.23533333  1
  H  H179  1  0.86756667  0.53313333  0.23533333  1
  H  H180  1  0.36990000  0.36830000  0.11980000  1
  H  H181  1  0.63170000  0.00160000  0.11980000  1
  H  H182  1  0.00000000  0.63010000  0.11980000  1
  H  H183  1  0.03656667  0.70163333  0.45313333  1
  H  H184  1  0.29836667  0.33493333  0.45313333  1
  H  H185  1  0.66506667  0.96343333  0.45313333  1
  H  H186  1  0.70323333  0.03496667  0.78646667  1
  H  H187  1  0.96503333  0.66826667  0.78646667  1
  H  H188  1  0.33173333  0.29676667  0.78646667  1
  H  H189  1  0.63010000  0.63170000  0.88020000  1
  H  H190  1  0.36830000  0.00000000  0.88020000  1
  H  H191  1  0.00160000  0.36990000  0.88020000  1
  H  H192  1  0.96343333  0.29836667  0.54686667  1
  H  H193  1  0.70163333  0.66506667  0.54686667  1
  H  H194  1  0.33493333  0.03656667  0.54686667  1
  H  H195  1  0.29676667  0.96503333  0.21353333  1
  H  H196  1  0.03496667  0.33173333  0.21353333  1
  H  H197  1  0.66826667  0.70323333  0.21353333  1
  N  N324  1  0.22966170  0.02566230  0.06725000  1
  N  N325  1  0.97433770  0.20399940  0.06725000  1
  N  N326  1  0.79600060  0.77033830  0.06725000  1
  N  N327  1  0.89632837  0.35899563  0.40058333  1
  N  N328  1  0.64100437  0.53733273  0.40058333  1
  N  N329  1  0.46266727  0.10367163  0.40058333  1
  N  N330  1  0.56299503  0.69232897  0.73391667  1
  N  N331  1  0.30767103  0.87066607  0.73391667  1
  N  N332  1  0.12933393  0.43700497  0.73391667  1
  N  N333  1  0.77033830  0.97433770  0.93275000  1
  N  N334  1  0.02566230  0.79600060  0.93275000  1
  N  N335  1  0.20399940  0.22966170  0.93275000  1
  N  N336  1  0.10367163  0.64100437  0.59941667  1
  N  N337  1  0.35899563  0.46266727  0.59941667  1
  N  N338  1  0.53733273  0.89632837  0.59941667  1
  N  N339  1  0.43700497  0.30767103  0.26608333  1
  N  N340  1  0.69232897  0.12933393  0.26608333  1
  N  N341  1  0.87066607  0.56299503  0.26608333  1
  C  C342  1  0.29388190  0.20798270  0.25826000  1
  C  C343  1  0.79201730  0.08589920  0.25826000  1
  C  C344  1  0.91410080  0.70611810  0.25826000  1
  C  C345  1  0.96054857  0.54131603  0.59159333  1
  C  C346  1  0.45868397  0.41923253  0.59159333  1
  C  C347  1  0.58076747  0.03945143  0.59159333  1
  C  C348  1  0.62721523  0.87464937  0.92492667  1
  C  C349  1  0.12535063  0.75256587  0.92492667  1
  C  C350  1  0.24743413  0.37278477  0.92492667  1
  C  C351  1  0.70611810  0.79201730  0.74174000  1
  C  C352  1  0.20798270  0.91410080  0.74174000  1
  C  C353  1  0.08589920  0.29388190  0.74174000  1
  C  C354  1  0.03945143  0.45868397  0.40840667  1
  C  C355  1  0.54131603  0.58076747  0.40840667  1
  C  C356  1  0.41923253  0.96054857  0.40840667  1
  C  C357  1  0.37278477  0.12535063  0.07507333  1
  C  C358  1  0.87464937  0.24743413  0.07507333  1
  C  C359  1  0.75256587  0.62721523  0.07507333  1
  C  C360  1  0.27746180  0.15186250  0.29386000  1
  C  C361  1  0.84813750  0.12559930  0.29386000  1
  C  C362  1  0.87440070  0.72253820  0.29386000  1
  C  C363  1  0.94412847  0.48519583  0.62719333  1
  C  C364  1  0.51480417  0.45893263  0.62719333  1
  C  C365  1  0.54106737  0.05587153  0.62719333  1
  C  C366  1  0.61079513  0.81852917  0.96052667  1
  C  C367  1  0.18147083  0.79226597  0.96052667  1
  C  C368  1  0.20773403  0.38920487  0.96052667  1
  C  C369  1  0.72253820  0.84813750  0.70614000  1
  C  C370  1  0.15186250  0.87440070  0.70614000  1
  C  C371  1  0.12559930  0.27746180  0.70614000  1
  C  C372  1  0.05587153  0.51480417  0.37280667  1
  C  C373  1  0.48519583  0.54106737  0.37280667  1
  C  C374  1  0.45893263  0.94412847  0.37280667  1
  C  C375  1  0.38920487  0.18147083  0.03947333  1
  C  C376  1  0.81852917  0.20773403  0.03947333  1
  C  C377  1  0.79226597  0.61079513  0.03947333  1
  C  C378  1  0.27852000  0.13645280  0.45336000  1
  C  C379  1  0.86354720  0.14206720  0.45336000  1
  C  C380  1  0.85793280  0.72148000  0.45336000  1
  C  C381  1  0.94518667  0.46978613  0.78669333  1
  C  C382  1  0.53021387  0.47540053  0.78669333  1
  C  C383  1  0.52459947  0.05481333  0.78669333  1
  C  C384  1  0.61185333  0.80311947  0.12002667  1
  C  C385  1  0.19688053  0.80873387  0.12002667  1
  C  C386  1  0.19126613  0.38814667  0.12002667  1
  C  C387  1  0.72148000  0.86354720  0.54664000  1
  C  C388  1  0.13645280  0.85793280  0.54664000  1
  C  C389  1  0.14206720  0.27852000  0.54664000  1
  C  C390  1  0.05481333  0.53021387  0.21330667  1
  C  C391  1  0.46978613  0.52459947  0.21330667  1
  C  C392  1  0.47540053  0.94518667  0.21330667  1
  C  C393  1  0.38814667  0.19688053  0.87997333  1
  C  C394  1  0.80311947  0.19126613  0.87997333  1
  C  C395  1  0.80873387  0.61185333  0.87997333  1
  H  H396  1  0.28870000  0.16080000  0.53830000  1
  H  H397  1  0.83920000  0.12790000  0.53830000  1
  H  H398  1  0.87210000  0.71130000  0.53830000  1
  H  H399  1  0.95536667  0.49413333  0.87163333  1
  H  H400  1  0.50586667  0.46123333  0.87163333  1
  H  H401  1  0.53876667  0.04463333  0.87163333  1
  H  H402  1  0.62203333  0.82746667  0.20496667  1
  H  H403  1  0.17253333  0.79456667  0.20496667  1
  H  H404  1  0.20543333  0.37796667  0.20496667  1
  H  H405  1  0.71130000  0.83920000  0.46170000  1
  H  H406  1  0.16080000  0.87210000  0.46170000  1
  H  H407  1  0.12790000  0.28870000  0.46170000  1
  H  H408  1  0.04463333  0.50586667  0.12836667  1
  H  H409  1  0.49413333  0.53876667  0.12836667  1
  H  H410  1  0.46123333  0.95536667  0.12836667  1
  H  H411  1  0.37796667  0.17253333  0.79503333  1
  H  H412  1  0.82746667  0.20543333  0.79503333  1
  H  H413  1  0.79456667  0.62203333  0.79503333  1
  C  C414  1  0.26462000  0.08517280  0.48806000  1
  C  C415  1  0.91482720  0.17944720  0.48806000  1
  C  C416  1  0.82055280  0.73538000  0.48806000  1
  C  C417  1  0.93128667  0.41850613  0.82139333  1
  C  C418  1  0.58149387  0.51278053  0.82139333  1
  C  C419  1  0.48721947  0.06871333  0.82139333  1
  C  C420  1  0.59795333  0.75183947  0.15472667  1
  C  C421  1  0.24816053  0.84611387  0.15472667  1
  C  C422  1  0.15388613  0.40204667  0.15472667  1
  C  C423  1  0.73538000  0.91482720  0.51194000  1
  C  C424  1  0.08517280  0.82055280  0.51194000  1
  C  C425  1  0.17944720  0.26462000  0.51194000  1
  C  C426  1  0.06871333  0.58149387  0.17860667  1
  C  C427  1  0.41850613  0.48721947  0.17860667  1
  C  C428  1  0.51278053  0.93128667  0.17860667  1
  C  C429  1  0.40204667  0.24816053  0.84527333  1
  C  C430  1  0.75183947  0.15388613  0.84527333  1
  C  C431  1  0.84611387  0.59795333  0.84527333  1
  C  C432  1  0.26302000  0.06843000  0.66416000  1
  C  C433  1  0.93157000  0.19459000  0.66416000  1
  C  C434  1  0.80541000  0.73698000  0.66416000  1
  C  C435  1  0.92968667  0.40176333  0.00000000  1
  C  C436  1  0.59823667  0.52792333  0.00000000  1
  C  C437  1  0.47207667  0.07031333  0.00000000  1
  C  C438  1  0.59635333  0.73509667  0.33082667  1
  C  C439  1  0.26490333  0.86125667  0.33082667  1
  C  C440  1  0.13874333  0.40364667  0.33082667  1
  C  C441  1  0.73698000  0.93157000  0.33584000  1
  C  C442  1  0.06843000  0.80541000  0.33584000  1
  C  C443  1  0.19459000  0.26302000  0.33584000  1
  C  C444  1  0.07031333  0.59823667  0.00250667  1
  C  C445  1  0.40176333  0.47207667  0.00250667  1
  C  C446  1  0.52792333  0.92968667  0.00250667  1
  C  C447  1  0.40364667  0.26490333  0.66917333  1
  C  C448  1  0.73509667  0.13874333  0.66917333  1
  C  C449  1  0.86125667  0.59635333  0.66917333  1
  C  C450  1  0.24972000  0.04837280  0.35936000  1
  C  C451  1  0.95162720  0.20134720  0.35936000  1
  C  C452  1  0.79865280  0.75028000  0.35936000  1
  C  C453  1  0.91638667  0.38170613  0.69269333  1
  C  C454  1  0.61829387  0.53468053  0.69269333  1
  C  C455  1  0.46531947  0.08361333  0.69269333  1
  C  C456  1  0.58305333  0.71503947  0.02602667  1
  C  C457  1  0.28496053  0.86801387  0.02602667  1
  C  C458  1  0.13198613  0.41694667  0.02602667  1
  C  C459  1  0.75028000  0.95162720  0.64064000  1
  C  C460  1  0.04837280  0.79865280  0.64064000  1
  C  C461  1  0.20134720  0.24972000  0.64064000  1
  C  C462  1  0.08361333  0.61829387  0.30730667  1
  C  C463  1  0.38170613  0.46531947  0.30730667  1
  C  C464  1  0.53468053  0.91638667  0.30730667  1
  C  C465  1  0.41694667  0.28496053  0.97397333  1
  C  C466  1  0.71503947  0.13198613  0.97397333  1
  C  C467  1  0.86801387  0.58305333  0.97397333  1
  H  H468  1  0.24190000  0.01420000  0.38070000  1
  H  H469  1  0.98580000  0.22770000  0.38070000  1
  H  H470  1  0.77230000  0.75810000  0.38070000  1
  H  H471  1  0.90856667  0.34753333  0.71403333  1
  H  H472  1  0.65246667  0.56103333  0.71403333  1
  H  H473  1  0.43896667  0.09143333  0.71403333  1
  H  H474  1  0.57523333  0.68086667  0.04736667  1
  H  H475  1  0.31913333  0.89436667  0.04736667  1
  H  H476  1  0.10563333  0.42476667  0.04736667  1
  H  H477  1  0.75810000  0.98580000  0.61930000  1
  H  H478  1  0.01420000  0.77230000  0.61930000  1
  H  H479  1  0.22770000  0.24190000  0.61930000  1
  H  H480  1  0.09143333  0.65246667  0.28596667  1
  H  H481  1  0.34753333  0.43896667  0.28596667  1
  H  H482  1  0.56103333  0.90856667  0.28596667  1
  H  H483  1  0.42476667  0.31913333  0.95263333  1
  H  H484  1  0.68086667  0.10563333  0.95263333  1
  H  H485  1  0.89436667  0.57523333  0.95263333  1
  C  C486  1  0.24689190  0.06380260  0.20066000  1
  C  C487  1  0.93619740  0.18308930  0.20066000  1
  C  C488  1  0.81691070  0.75310810  0.20066000  1
  C  C489  1  0.91355857  0.39713593  0.53399333  1
  C  C490  1  0.60286407  0.51642263  0.53399333  1
  C  C491  1  0.48357737  0.08644143  0.53399333  1
  C  C492  1  0.58022523  0.73046927  0.86732667  1
  C  C493  1  0.26953073  0.84975597  0.86732667  1
  C  C494  1  0.15024403  0.41977477  0.86732667  1
  C  C495  1  0.75310810  0.93619740  0.79934000  1
  C  C496  1  0.06380260  0.81691070  0.79934000  1
  C  C497  1  0.18308930  0.24689190  0.79934000  1
  C  C498  1  0.08644143  0.60286407  0.46600667  1
  C  C499  1  0.39713593  0.48357737  0.46600667  1
  C  C500  1  0.51642263  0.91355857  0.46600667  1
  C  C501  1  0.41977477  0.26953073  0.13267333  1
  C  C502  1  0.73046927  0.15024403  0.13267333  1
  C  C503  1  0.84975597  0.58022523  0.13267333  1
  C  C504  1  0.26042000  0.11504280  0.16626000  1
  C  C505  1  0.88495720  0.14537720  0.16626000  1
  C  C506  1  0.85462280  0.73958000  0.16626000  1
  C  C507  1  0.92708667  0.44837613  0.49959333  1
  C  C508  1  0.55162387  0.47871053  0.49959333  1
  C  C509  1  0.52128947  0.07291333  0.49959333  1
  C  C510  1  0.59375333  0.78170947  0.83292667  1
  C  C511  1  0.21829053  0.81204387  0.83292667  1
  C  C512  1  0.18795613  0.40624667  0.83292667  1
  C  C513  1  0.73958000  0.88495720  0.83374000  1
  C  C514  1  0.11504280  0.85462280  0.83374000  1
  C  C515  1  0.14537720  0.26042000  0.83374000  1
  C  C516  1  0.07291333  0.55162387  0.50040667  1
  C  C517  1  0.44837613  0.52128947  0.50040667  1
  C  C518  1  0.47871053  0.92708667  0.50040667  1
  C  C519  1  0.40624667  0.21829053  0.16707333  1
  C  C520  1  0.78170947  0.18795613  0.16707333  1
  C  C521  1  0.81204387  0.59375333  0.16707333  1
  H  H522  1  0.25810000  0.12490000  0.05910000  1
  H  H523  1  0.87510000  0.13320000  0.05910000  1
  H  H524  1  0.86680000  0.74190000  0.05910000  1
  H  H525  1  0.92476667  0.45823333  0.39243333  1
  H  H526  1  0.54176667  0.46653333  0.39243333  1
  H  H527  1  0.53346667  0.07523333  0.39243333  1
  H  H528  1  0.59143333  0.79156667  0.72576667  1
  H  H529  1  0.20843333  0.79986667  0.72576667  1
  H  H530  1  0.20013333  0.40856667  0.72576667  1
  H  H531  1  0.74190000  0.87510000  0.94090000  1
  H  H532  1  0.12490000  0.86680000  0.94090000  1
  H  H533  1  0.13320000  0.25810000  0.94090000  1
  H  H534  1  0.07523333  0.54176667  0.60756667  1
  H  H535  1  0.45823333  0.53346667  0.60756667  1
  H  H536  1  0.46653333  0.92476667  0.60756667  1
  H  H537  1  0.40856667  0.20843333  0.27423333  1
  H  H538  1  0.79156667  0.20013333  0.27423333  1
  H  H539  1  0.79986667  0.59143333  0.27423333  1
