# generated using pymatgen
data_Zn6H108C108S2N26Cl12(O3F2)3
_symmetry_space_group_name_H-M   'P 1'
_cell_length_a   32.57362000
_cell_length_b   14.43341000
_cell_length_c   31.54152000
_cell_angle_alpha   90.00000000
_cell_angle_beta   101.45110000
_cell_angle_gamma   90.00000000
_symmetry_Int_Tables_number   1
_chemical_formula_structural   Zn6H108C108S2N26Cl12(O3F2)3
_chemical_formula_sum   'Zn24 H432 C432 S8 N104 Cl48 O36 F24'
_cell_volume   14534.01302987
_cell_formula_units_Z   4
loop_
 _symmetry_equiv_pos_site_id
 _symmetry_equiv_pos_as_xyz
  1  'x, y, z'
loop_
 _atom_site_type_symbol
 _atom_site_label
 _atom_site_symmetry_multiplicity
 _atom_site_fract_x
 _atom_site_fract_y
 _atom_site_fract_z
 _atom_site_occupancy
  Zn  Zn0  1  0.30671180  0.39829170  0.45878160  1
  Zn  Zn1  1  0.69328820  0.39829170  0.54121840  1
  Zn  Zn2  1  0.80671180  0.89829170  0.45878160  1
  Zn  Zn3  1  0.19328820  0.89829170  0.54121840  1
  Cl  Cl4  1  0.33804000  0.43834000  0.52462000  1
  Cl  Cl5  1  0.66196000  0.43834000  0.47538000  1
  Cl  Cl6  1  0.83804000  0.93834000  0.52462000  1
  Cl  Cl7  1  0.16196000  0.93834000  0.47538000  1
  Cl  Cl8  1  0.24622000  0.45744000  0.42553000  1
  Cl  Cl9  1  0.75378000  0.45744000  0.57447000  1
  Cl  Cl10  1  0.74622000  0.95744000  0.42553000  1
  Cl  Cl11  1  0.25378000  0.95744000  0.57447000  1
  Zn  Zn12  1  0.92376000  0.39308000  0.15214000  1
  Zn  Zn13  1  0.07624000  0.39308000  0.84786000  1
  Zn  Zn14  1  0.42376000  0.89308000  0.15214000  1
  Zn  Zn15  1  0.57624000  0.89308000  0.84786000  1
  Cl  Cl16  1  0.89244000  0.50991400  0.17208000  1
  Cl  Cl17  1  0.10756000  0.50991400  0.82792000  1
  Cl  Cl18  1  0.39244000  0.00991400  0.17208000  1
  Cl  Cl19  1  0.60756000  0.00991400  0.82792000  1
  Cl  Cl20  1  0.97915000  0.42071000  0.12394000  1
  Cl  Cl21  1  0.02085000  0.42071000  0.87606000  1
  Cl  Cl22  1  0.47915000  0.92071000  0.12394000  1
  Cl  Cl23  1  0.52085000  0.92071000  0.87606000  1
  Zn  Zn24  1  0.62928110  0.37428110  0.79848130  1
  Zn  Zn25  1  0.37071890  0.37428110  0.20151870  1
  Zn  Zn26  1  0.12928110  0.87428110  0.79848130  1
  Zn  Zn27  1  0.87071890  0.87428110  0.20151870  1
  Cl  Cl28  1  0.65407160  0.35863000  0.73801120  1
  Cl  Cl29  1  0.34592840  0.35863000  0.26198880  1
  Cl  Cl30  1  0.15407160  0.85863000  0.73801120  1
  Cl  Cl31  1  0.84592840  0.85863000  0.26198880  1
  Cl  Cl32  1  0.61957180  0.51383000  0.82312000  1
  Cl  Cl33  1  0.38042820  0.51383000  0.17688000  1
  Cl  Cl34  1  0.11957180  0.01383000  0.82312000  1
  Cl  Cl35  1  0.88042820  0.01383000  0.17688000  1
  Zn  Zn36  1  0.31104000  0.10024000  0.96124000  1
  Zn  Zn37  1  0.68896000  0.10024000  0.03876000  1
  Zn  Zn38  1  0.81104000  0.60024000  0.96124000  1
  Zn  Zn39  1  0.18896000  0.60024000  0.03876000  1
  Cl  Cl40  1  0.34386000  0.06317000  0.02594000  1
  Cl  Cl41  1  0.65614000  0.06317000  0.97406000  1
  Cl  Cl42  1  0.84386000  0.56317000  0.02594000  1
  Cl  Cl43  1  0.15614000  0.56317000  0.97406000  1
  Cl  Cl44  1  0.25115000  0.03778000  0.93126000  1
  Cl  Cl45  1  0.74885000  0.03778000  0.06874000  1
  Cl  Cl46  1  0.75115000  0.53778000  0.93126000  1
  Cl  Cl47  1  0.24885000  0.53778000  0.06874000  1
  Zn  Zn48  1  0.12582160  0.62407000  0.29951110  1
  Zn  Zn49  1  0.87417840  0.62407000  0.70048890  1
  Zn  Zn50  1  0.62582160  0.12407000  0.29951110  1
  Zn  Zn51  1  0.37417840  0.12407000  0.70048890  1
  Cl  Cl52  1  0.11283000  0.49067000  0.32892000  1
  Cl  Cl53  1  0.88717000  0.49067000  0.67108000  1
  Cl  Cl54  1  0.61283000  0.99067000  0.32892000  1
  Cl  Cl55  1  0.38717000  0.99067000  0.67108000  1
  Cl  Cl56  1  0.14813000  0.63775000  0.23753000  1
  Cl  Cl57  1  0.85187000  0.63775000  0.76247000  1
  Cl  Cl58  1  0.64813000  0.13775000  0.23753000  1
  Cl  Cl59  1  0.35187000  0.13775000  0.76247000  1
  N  N60  1  0.57652000  0.29406000  0.79112000  1
  N  N61  1  0.42348000  0.29406000  0.20888000  1
  N  N62  1  0.07652000  0.79406000  0.79112000  1
  N  N63  1  0.92348000  0.79406000  0.20888000  1
  C  C64  1  0.51532000  0.16406000  0.79403000  1
  C  C65  1  0.48468000  0.16406000  0.20597000  1
  C  C66  1  0.01532000  0.66406000  0.79403000  1
  C  C67  1  0.98468000  0.66406000  0.20597000  1
  N  N68  1  0.45962000  0.10605000  0.82792000  1
  N  N69  1  0.54038000  0.10605000  0.17208000  1
  N  N70  1  0.95962000  0.60605000  0.82792000  1
  N  N71  1  0.04038000  0.60605000  0.17208000  1
  C  C72  1  0.54163000  0.15137000  0.76633000  1
  C  C73  1  0.45837000  0.15137000  0.23367000  1
  C  C74  1  0.04163000  0.65137000  0.76633000  1
  C  C75  1  0.95837000  0.65137000  0.23367000  1
  H  H76  1  0.53968000  0.09755000  0.74859000  1
  H  H77  1  0.46032000  0.09755000  0.25141000  1
  H  H78  1  0.03968000  0.59755000  0.74859000  1
  H  H79  1  0.96032000  0.59755000  0.25141000  1
  Zn  Zn80  1  0.41957500  0.61131890  0.65538500  1
  Zn  Zn81  1  0.58042500  0.61131890  0.34461500  1
  Zn  Zn82  1  0.91957500  0.11131890  0.65538500  1
  Zn  Zn83  1  0.08042500  0.11131890  0.34461500  1
  N  N84  1  0.42762000  0.96355000  0.80842000  1
  N  N85  1  0.57238000  0.96355000  0.19158000  1
  N  N86  1  0.92762000  0.46355000  0.80842000  1
  N  N87  1  0.07238000  0.46355000  0.19158000  1
  C  C88  1  0.57203000  0.21987000  0.76433000  1
  C  C89  1  0.42797000  0.21987000  0.23567000  1
  C  C90  1  0.07203000  0.71987000  0.76433000  1
  C  C91  1  0.92797000  0.71987000  0.23567000  1
  H  H92  1  0.58965000  0.21387000  0.74379000  1
  H  H93  1  0.41035000  0.21387000  0.25621000  1
  H  H94  1  0.08965000  0.71387000  0.74379000  1
  H  H95  1  0.91035000  0.71387000  0.25621000  1
  C  C96  1  0.55003000  0.30427000  0.81733000  1
  C  C97  1  0.44997000  0.30427000  0.18267000  1
  C  C98  1  0.05003000  0.80427000  0.81733000  1
  C  C99  1  0.94997000  0.80427000  0.18267000  1
  H  H100  1  0.55292000  0.35780000  0.83511000  1
  H  H101  1  0.44708000  0.35780000  0.16489000  1
  H  H102  1  0.05292000  0.85780000  0.83511000  1
  H  H103  1  0.94708000  0.85780000  0.16489000  1
  N  N104  1  0.48082000  0.01596000  0.77312000  1
  N  N105  1  0.51918000  0.01596000  0.22688000  1
  N  N106  1  0.98082000  0.51596000  0.77312000  1
  N  N107  1  0.01918000  0.51596000  0.22688000  1
  C  C108  1  0.51793000  0.24187000  0.82103000  1
  C  C109  1  0.48207000  0.24187000  0.17897000  1
  C  C110  1  0.01793000  0.74187000  0.82103000  1
  C  C111  1  0.98207000  0.74187000  0.17897000  1
  H  H112  1  0.49936000  0.25163000  0.84032000  1
  H  H113  1  0.50064000  0.25163000  0.15968000  1
  H  H114  1  0.00000000  0.75163000  0.84032000  1
  H  H115  1  0.00064000  0.75163000  0.15968000  1
  N  N116  1  0.35223000  0.08206000  0.92113000  1
  N  N117  1  0.64777000  0.08206000  0.07887000  1
  N  N118  1  0.85223000  0.58206000  0.92113000  1
  N  N119  1  0.14777000  0.58206000  0.07887000  1
  Cl  Cl120  1  0.38207150  0.50507000  0.67994170  1
  Cl  Cl121  1  0.61792850  0.50507000  0.32005830  1
  Cl  Cl122  1  0.88207150  0.00507000  0.67994170  1
  Cl  Cl123  1  0.11792850  0.00507000  0.32005830  1
  C  C124  1  0.43243000  0.03867000  0.83203000  1
  C  C125  1  0.56757000  0.03867000  0.16797000  1
  C  C126  1  0.93243000  0.53867000  0.83203000  1
  C  C127  1  0.06757000  0.53867000  0.16797000  1
  N  N128  1  0.37953000  0.68714000  0.60903000  1
  N  N129  1  0.62047000  0.68714000  0.39097000  1
  N  N130  1  0.87953000  0.18714000  0.60903000  1
  N  N131  1  0.12047000  0.18714000  0.39097000  1
  C  C132  1  0.48332000  0.09036000  0.79903000  1
  C  C133  1  0.51668000  0.09036000  0.20097000  1
  C  C134  1  0.98332000  0.59036000  0.79903000  1
  C  C135  1  0.01668000  0.59036000  0.20097000  1
  N  N136  1  0.43763000  0.71065000  0.70103000  1
  N  N137  1  0.56237000  0.71065000  0.29897000  1
  N  N138  1  0.93763000  0.21065000  0.70103000  1
  N  N139  1  0.06237000  0.21065000  0.29897000  1
  Cl  Cl140  1  0.47351150  0.57616000  0.62625130  1
  Cl  Cl141  1  0.52648850  0.57616000  0.37374870  1
  Cl  Cl142  1  0.97351150  0.07616000  0.62625130  1
  Cl  Cl143  1  0.02648850  0.07616000  0.37374870  1
  C  C144  1  0.45293000  0.95413000  0.77953000  1
  C  C145  1  0.54707000  0.95413000  0.22047000  1
  C  C146  1  0.95293000  0.45413000  0.77953000  1
  C  C147  1  0.04707000  0.45413000  0.22047000  1
  N  N148  1  0.31253000  0.92255000  0.50103000  1
  N  N149  1  0.68747000  0.92255000  0.49897000  1
  N  N150  1  0.81253000  0.42255000  0.50103000  1
  N  N151  1  0.18747000  0.42255000  0.49897000  1
  N  N152  1  0.25893000  0.92625000  0.43863000  1
  N  N153  1  0.74107000  0.92625000  0.56137000  1
  N  N154  1  0.75893000  0.42625000  0.43863000  1
  N  N155  1  0.24107000  0.42625000  0.56137000  1
  C  C156  1  0.40513000  0.05367000  0.86213000  1
  C  C157  1  0.59487000  0.05367000  0.13787000  1
  C  C158  1  0.90513000  0.55367000  0.86213000  1
  C  C159  1  0.09487000  0.55367000  0.13787000  1
  N  N160  1  0.27602000  0.78365000  0.47652000  1
  N  N161  1  0.72398000  0.78365000  0.52348000  1
  N  N162  1  0.77602000  0.28365000  0.47652000  1
  N  N163  1  0.22398000  0.28365000  0.52348000  1
  C  C164  1  0.41335000  0.12211300  0.89305000  1
  C  C165  1  0.58665000  0.12211300  0.10695000  1
  C  C166  1  0.91335000  0.62211300  0.89305000  1
  C  C167  1  0.08665000  0.62211300  0.10695000  1
  H  H168  1  0.43726000  0.16077000  0.89618000  1
  H  H169  1  0.56274000  0.16077000  0.10382000  1
  H  H170  1  0.93726000  0.66077000  0.89618000  1
  H  H171  1  0.06274000  0.66077000  0.10382000  1
  N  N172  1  0.30183000  0.25686000  0.46293000  1
  N  N173  1  0.69817000  0.25686000  0.53707000  1
  N  N174  1  0.80183000  0.75686000  0.46293000  1
  N  N175  1  0.19817000  0.75686000  0.53707000  1
  C  C176  1  0.38295000  0.13081200  0.92015000  1
  C  C177  1  0.61705000  0.13081200  0.07985000  1
  C  C178  1  0.88295000  0.63081200  0.92015000  1
  C  C179  1  0.11705000  0.63081200  0.07985000  1
  H  H180  1  0.38705000  0.18103000  0.93991000  1
  H  H181  1  0.61295000  0.18103000  0.06009000  1
  H  H182  1  0.88705000  0.68103000  0.93991000  1
  H  H183  1  0.11295000  0.68103000  0.06009000  1
  C  C184  1  0.34504000  0.01399000  0.89235000  1
  C  C185  1  0.65496000  0.01399000  0.10765000  1
  C  C186  1  0.84504000  0.51399000  0.89235000  1
  C  C187  1  0.15496000  0.51399000  0.10765000  1
  H  H188  1  0.32186000  0.97378000  0.89213000  1
  H  H189  1  0.67814000  0.97378000  0.10787000  1
  H  H190  1  0.82186000  0.47378000  0.89213000  1
  H  H191  1  0.17814000  0.47378000  0.10787000  1
  N  N192  1  0.16562000  0.69495000  0.34733000  1
  N  N193  1  0.83438000  0.69495000  0.65267000  1
  N  N194  1  0.66562000  0.19495000  0.34733000  1
  N  N195  1  0.33438000  0.19495000  0.65267000  1
  C  C196  1  0.36994000  0.00000000  0.86294000  1
  C  C197  1  0.63006000  0.00000000  0.13706000  1
  C  C198  1  0.86994000  0.49979000  0.86294000  1
  C  C199  1  0.13006000  0.49979000  0.13706000  1
  H  H200  1  0.36297000  0.95146000  0.84228000  1
  H  H201  1  0.63703000  0.95146000  0.15772000  1
  H  H202  1  0.86297000  0.45146000  0.84228000  1
  H  H203  1  0.13703000  0.45146000  0.15772000  1
  N  N204  1  0.07552000  0.70935000  0.29223000  1
  N  N205  1  0.92448000  0.70935000  0.70777000  1
  N  N206  1  0.57552000  0.20935000  0.29223000  1
  N  N207  1  0.42448000  0.20935000  0.70777000  1
  N  N208  1  0.97978000  0.98555000  0.27392000  1
  N  N209  1  0.02022000  0.98555000  0.72608000  1
  N  N210  1  0.47978000  0.48555000  0.27392000  1
  N  N211  1  0.52022000  0.48555000  0.72608000  1
  C  C212  1  0.44862000  0.86754000  0.75303000  1
  C  C213  1  0.55138000  0.86754000  0.24697000  1
  C  C214  1  0.94862000  0.36754000  0.75303000  1
  C  C215  1  0.05138000  0.36754000  0.24697000  1
  C  C216  1  0.41983000  0.80092000  0.75853000  1
  C  C217  1  0.58017000  0.80092000  0.24147000  1
  C  C218  1  0.91983000  0.30092000  0.75853000  1
  C  C219  1  0.08017000  0.30092000  0.24147000  1
  H  H220  1  0.40365000  0.80698000  0.78039000  1
  H  H221  1  0.59635000  0.80698000  0.21961000  1
  H  H222  1  0.90365000  0.30698000  0.78039000  1
  H  H223  1  0.09635000  0.30698000  0.21961000  1
  N  N224  1  0.95768000  0.89404000  0.32712000  1
  N  N225  1  0.04232000  0.89404000  0.67288000  1
  N  N226  1  0.45768000  0.39404000  0.32712000  1
  N  N227  1  0.54232000  0.39404000  0.67288000  1
  C  C228  1  0.46523000  0.77693000  0.69643000  1
  C  C229  1  0.53477000  0.77693000  0.30357000  1
  C  C230  1  0.96523000  0.27693000  0.69643000  1
  C  C231  1  0.03477000  0.27693000  0.30357000  1
  H  H232  1  0.48082000  0.76944000  0.67416000  1
  H  H233  1  0.51918000  0.76944000  0.32584000  1
  H  H234  1  0.98082000  0.26944000  0.67416000  1
  H  H235  1  0.01918000  0.26944000  0.32584000  1
  N  N236  1  0.84746000  0.91793000  0.41833000  1
  N  N237  1  0.15254000  0.91793000  0.58167000  1
  N  N238  1  0.34746000  0.41793000  0.41833000  1
  N  N239  1  0.65254000  0.41793000  0.58167000  1
  C  C240  1  0.41513000  0.72392000  0.73084000  1
  C  C241  1  0.58487000  0.72392000  0.26916000  1
  C  C242  1  0.91513000  0.22392000  0.73084000  1
  C  C243  1  0.08487000  0.22392000  0.26916000  1
  H  H244  1  0.39454000  0.67911000  0.73360000  1
  H  H245  1  0.60546000  0.67911000  0.26640000  1
  H  H246  1  0.89454000  0.17911000  0.73360000  1
  H  H247  1  0.10546000  0.17911000  0.26640000  1
  N  N248  1  0.92518000  0.04206000  0.30733000  1
  N  N249  1  0.07482000  0.04206000  0.69267000  1
  N  N250  1  0.42518000  0.54206000  0.30733000  1
  N  N251  1  0.57482000  0.54206000  0.69267000  1
  C  C252  1  0.33013000  0.78055000  0.54133000  1
  C  C253  1  0.66987000  0.78055000  0.45867000  1
  C  C254  1  0.83013000  0.28055000  0.54133000  1
  C  C255  1  0.16987000  0.28055000  0.45867000  1
  N  N256  1  0.87897000  0.31415000  0.11042000  1
  N  N257  1  0.12103000  0.31415000  0.88958000  1
  N  N258  1  0.37897000  0.81415000  0.11042000  1
  N  N259  1  0.62103000  0.81415000  0.88958000  1
  C  C260  1  0.47243000  0.85484000  0.72153000  1
  C  C261  1  0.52757000  0.85484000  0.27847000  1
  C  C262  1  0.97243000  0.35484000  0.72153000  1
  C  C263  1  0.02757000  0.35484000  0.27847000  1
  H  H264  1  0.49296000  0.89892000  0.71758000  1
  H  H265  1  0.50704000  0.89892000  0.28242000  1
  H  H266  1  0.99296000  0.39892000  0.71758000  1
  H  H267  1  0.00704000  0.39892000  0.28242000  1
  N  N268  1  0.93707000  0.28946000  0.20153000  1
  N  N269  1  0.06293000  0.28946000  0.79847000  1
  N  N270  1  0.43707000  0.78946000  0.20153000  1
  N  N271  1  0.56293000  0.78946000  0.79847000  1
  C  C272  1  0.33053000  0.68174000  0.54123000  1
  C  C273  1  0.66947000  0.68174000  0.45877000  1
  C  C274  1  0.83053000  0.18174000  0.54123000  1
  C  C275  1  0.16947000  0.18174000  0.45877000  1
  H  H276  1  0.31523000  0.64630000  0.51794000  1
  H  H277  1  0.68477000  0.64630000  0.48206000  1
  H  H278  1  0.81523000  0.14630000  0.51794000  1
  H  H279  1  0.18477000  0.14630000  0.48206000  1
  N  N280  1  0.77518000  0.21285000  0.97738000  1
  N  N281  1  0.22482000  0.21285000  0.02262000  1
  N  N282  1  0.27518000  0.71285000  0.97738000  1
  N  N283  1  0.72482000  0.71285000  0.02262000  1
  C  C284  1  0.35504000  0.64144000  0.57773000  1
  C  C285  1  0.64496000  0.64144000  0.42227000  1
  C  C286  1  0.85504000  0.14144000  0.57773000  1
  C  C287  1  0.14496000  0.14144000  0.42227000  1
  H  H288  1  0.35390000  0.57603000  0.58017000  1
  H  H289  1  0.64610000  0.57603000  0.41983000  1
  H  H290  1  0.85390000  0.07603000  0.58017000  1
  H  H291  1  0.14610000  0.07603000  0.41983000  1
  N  N292  1  0.81218000  0.07665000  0.00373000  1
  N  N293  1  0.18782000  0.07665000  0.00000000  1
  N  N294  1  0.31218000  0.57665000  0.00373000  1
  N  N295  1  0.68782000  0.57665000  0.00000000  1
  C  C296  1  0.35254000  0.82803000  0.57554000  1
  C  C297  1  0.64746000  0.82803000  0.42446000  1
  C  C298  1  0.85254000  0.32803000  0.57554000  1
  C  C299  1  0.14746000  0.32803000  0.42446000  1
  H  H300  1  0.35134000  0.89377000  0.57662000  1
  H  H301  1  0.64866000  0.89377000  0.42338000  1
  H  H302  1  0.85134000  0.39377000  0.57662000  1
  H  H303  1  0.14866000  0.39377000  0.42338000  1
  N  N304  1  0.80427000  0.74134000  0.96346000  1
  N  N305  1  0.19573000  0.74134000  0.03654000  1
  N  N306  1  0.30427000  0.24134000  0.96346000  1
  N  N307  1  0.69573000  0.24134000  0.03654000  1
  C  C308  1  0.37744000  0.77752000  0.60914000  1
  C  C309  1  0.62256000  0.77752000  0.39086000  1
  C  C310  1  0.87744000  0.27752000  0.60914000  1
  C  C311  1  0.12256000  0.27752000  0.39086000  1
  H  H312  1  0.39337000  0.81053000  0.63279000  1
  H  H313  1  0.60663000  0.81053000  0.36721000  1
  H  H314  1  0.89337000  0.31053000  0.63279000  1
  H  H315  1  0.10663000  0.31053000  0.36721000  1
  N  N316  1  0.75888000  0.07155000  0.94017000  1
  N  N317  1  0.24112000  0.07155000  0.05983000  1
  N  N318  1  0.25888000  0.57155000  0.94017000  1
  N  N319  1  0.74112000  0.57155000  0.05983000  1
  C  C320  1  0.30423000  0.83133000  0.50413000  1
  C  C321  1  0.69577000  0.83133000  0.49587000  1
  C  C322  1  0.80423000  0.33133000  0.50413000  1
  C  C323  1  0.19577000  0.33133000  0.49587000  1
  N  N324  1  0.66808000  0.30485000  0.84788000  1
  N  N325  1  0.33192000  0.30485000  0.15212000  1
  N  N326  1  0.16808000  0.80485000  0.84788000  1
  N  N327  1  0.83192000  0.80485000  0.15212000  1
  C  C328  1  0.28793000  0.96504000  0.46803000  1
  C  C329  1  0.71207000  0.96504000  0.53197000  1
  C  C330  1  0.78793000  0.46504000  0.46803000  1
  C  C331  1  0.21207000  0.46504000  0.53197000  1
  C  C332  1  0.25353000  0.83524000  0.44373000  1
  C  C333  1  0.74647000  0.83524000  0.55627000  1
  C  C334  1  0.75353000  0.33524000  0.44373000  1
  C  C335  1  0.24647000  0.33524000  0.55627000  1
  C  C336  1  0.29303000  0.06717000  0.46673000  1
  C  C337  1  0.70697000  0.06717000  0.53327000  1
  C  C338  1  0.79303000  0.56717000  0.46673000  1
  C  C339  1  0.20697000  0.56717000  0.53327000  1
  C  C340  1  0.32595000  0.20927000  0.49564000  1
  C  C341  1  0.67405000  0.20927000  0.50436000  1
  C  C342  1  0.82595000  0.70927000  0.49564000  1
  C  C343  1  0.17405000  0.70927000  0.50436000  1
  H  H344  1  0.34586000  0.24009000  0.51707000  1
  H  H345  1  0.65414000  0.24009000  0.48293000  1
  H  H346  1  0.84586000  0.74009000  0.51707000  1
  H  H347  1  0.15414000  0.74009000  0.48293000  1
  C  C348  1  0.32054000  0.11147000  0.49684000  1
  C  C349  1  0.67946000  0.11147000  0.50316000  1
  C  C350  1  0.82054000  0.61147000  0.49684000  1
  C  C351  1  0.17946000  0.61147000  0.50316000  1
  H  H352  1  0.33696000  0.07682000  0.51968000  1
  H  H353  1  0.66304000  0.07682000  0.48032000  1
  H  H354  1  0.83696000  0.57682000  0.51968000  1
  H  H355  1  0.16304000  0.57682000  0.48032000  1
  C  C356  1  0.27374000  0.21079000  0.43446000  1
  C  C357  1  0.72626000  0.21079000  0.56554000  1
  C  C358  1  0.77374000  0.71079000  0.43446000  1
  C  C359  1  0.22626000  0.71079000  0.56554000  1
  H  H360  1  0.25568000  0.24569000  0.41283000  1
  H  H361  1  0.74432000  0.24569000  0.58717000  1
  H  H362  1  0.75568000  0.74569000  0.41283000  1
  H  H363  1  0.24432000  0.74569000  0.58717000  1
  C  C364  1  0.26904000  0.11948000  0.43375000  1
  C  C365  1  0.73096000  0.11948000  0.56625000  1
  C  C366  1  0.76904000  0.61948000  0.43375000  1
  C  C367  1  0.23096000  0.61948000  0.56625000  1
  H  H368  1  0.24969000  0.09020000  0.41117000  1
  H  H369  1  0.75031000  0.09020000  0.58883000  1
  H  H370  1  0.74969000  0.59020000  0.41117000  1
  H  H371  1  0.25031000  0.59020000  0.58883000  1
  C  C372  1  0.16883000  0.78834000  0.34943000  1
  C  C373  1  0.83117000  0.78834000  0.65057000  1
  C  C374  1  0.66883000  0.28834000  0.34943000  1
  C  C375  1  0.33117000  0.28834000  0.65057000  1
  H  H376  1  0.15058000  0.82361000  0.32815000  1
  H  H377  1  0.84942000  0.82361000  0.67185000  1
  H  H378  1  0.65058000  0.32361000  0.32815000  1
  H  H379  1  0.34942000  0.32361000  0.67185000  1
  C  C380  1  0.19603000  0.83443000  0.37964000  1
  C  C381  1  0.80397000  0.83443000  0.62036000  1
  C  C382  1  0.69603000  0.33443000  0.37964000  1
  C  C383  1  0.30397000  0.33443000  0.62036000  1
  H  H384  1  0.19708000  0.90024000  0.37918000  1
  H  H385  1  0.80292000  0.90024000  0.62082000  1
  H  H386  1  0.69708000  0.40024000  0.37918000  1
  H  H387  1  0.30292000  0.40024000  0.62082000  1
  C  C388  1  0.22263000  0.78524000  0.41143000  1
  C  C389  1  0.77737000  0.78524000  0.58857000  1
  C  C390  1  0.72263000  0.28524000  0.41143000  1
  C  C391  1  0.27737000  0.28524000  0.58857000  1
  C  C392  1  0.07113000  0.78513000  0.26723000  1
  C  C393  1  0.92887000  0.78513000  0.73277000  1
  C  C394  1  0.57113000  0.28513000  0.26723000  1
  C  C395  1  0.42887000  0.28513000  0.73277000  1
  H  H396  1  0.08965000  0.79367000  0.24782000  1
  H  H397  1  0.91035000  0.79367000  0.75218000  1
  H  H398  1  0.58965000  0.29367000  0.24782000  1
  H  H399  1  0.41035000  0.29367000  0.75218000  1
  C  C400  1  0.04143000  0.85043000  0.26833000  1
  C  C401  1  0.95857000  0.85043000  0.73167000  1
  C  C402  1  0.54143000  0.35043000  0.26833000  1
  C  C403  1  0.45857000  0.35043000  0.73167000  1
  H  H404  1  0.03935000  0.90240000  0.24941000  1
  H  H405  1  0.96065000  0.90240000  0.75059000  1
  H  H406  1  0.53935000  0.40240000  0.24941000  1
  H  H407  1  0.46065000  0.40240000  0.75059000  1
  C  C408  1  0.01423000  0.84254000  0.29613000  1
  C  C409  1  0.98577000  0.84254000  0.70387000  1
  C  C410  1  0.51423000  0.34254000  0.29613000  1
  C  C411  1  0.48577000  0.34254000  0.70387000  1
  C  C412  1  0.22103000  0.68883000  0.41014000  1
  C  C413  1  0.77897000  0.68883000  0.58986000  1
  C  C414  1  0.72103000  0.18883000  0.41014000  1
  C  C415  1  0.27897000  0.18883000  0.58986000  1
  H  H416  1  0.23964000  0.65280000  0.43066000  1
  H  H417  1  0.76036000  0.65280000  0.56934000  1
  H  H418  1  0.73964000  0.15280000  0.43066000  1
  H  H419  1  0.26036000  0.15280000  0.56934000  1
  C  C420  1  0.19233000  0.64783000  0.37894000  1
  C  C421  1  0.80767000  0.64783000  0.62106000  1
  C  C422  1  0.69233000  0.14783000  0.37894000  1
  C  C423  1  0.30767000  0.14783000  0.62106000  1
  H  H424  1  0.19063000  0.58219000  0.37899000  1
  H  H425  1  0.80937000  0.58219000  0.62101000  1
  H  H426  1  0.69063000  0.08219000  0.37899000  1
  H  H427  1  0.30937000  0.08219000  0.62101000  1
  C  C428  1  0.04863000  0.69602000  0.31764000  1
  C  C429  1  0.95137000  0.69602000  0.68236000  1
  C  C430  1  0.54863000  0.19602000  0.31764000  1
  C  C431  1  0.45137000  0.19602000  0.68236000  1
  H  H432  1  0.05044000  0.64135000  0.33460000  1
  H  H433  1  0.94956000  0.64135000  0.66540000  1
  H  H434  1  0.55044000  0.14135000  0.33460000  1
  H  H435  1  0.44956000  0.14135000  0.66540000  1
  C  C436  1  0.01804000  0.75941000  0.32004000  1
  C  C437  1  0.98196000  0.75941000  0.67996000  1
  C  C438  1  0.51804000  0.25941000  0.32004000  1
  C  C439  1  0.48196000  0.25941000  0.67996000  1
  H  H440  1  0.00000000  0.74722000  0.33831000  1
  H  H441  1  0.00125000  0.74722000  0.66169000  1
  H  H442  1  0.49875000  0.24722000  0.33831000  1
  H  H443  1  0.50125000  0.24722000  0.66169000  1
  C  C444  1  0.98147000  0.91083000  0.29903000  1
  C  C445  1  0.01853000  0.91083000  0.70097000  1
  C  C446  1  0.48147000  0.41083000  0.29903000  1
  C  C447  1  0.51853000  0.41083000  0.70097000  1
  C  C448  1  0.92917000  0.96033000  0.32993000  1
  C  C449  1  0.07083000  0.96033000  0.67007000  1
  C  C450  1  0.42917000  0.46033000  0.32993000  1
  C  C451  1  0.57083000  0.46033000  0.67007000  1
  C  C452  1  0.95088000  0.04836000  0.28033000  1
  C  C453  1  0.04912000  0.04836000  0.71967000  1
  C  C454  1  0.45088000  0.54836000  0.28033000  1
  C  C455  1  0.54912000  0.54836000  0.71967000  1
  C  C456  1  0.90137000  0.94713000  0.36164000  1
  C  C457  1  0.09863000  0.94713000  0.63836000  1
  C  C458  1  0.40137000  0.44713000  0.36164000  1
  C  C459  1  0.59863000  0.44713000  0.63836000  1
  C  C460  1  0.90635000  0.87268800  0.38916000  1
  C  C461  1  0.09365000  0.87268800  0.61084000  1
  C  C462  1  0.40635000  0.37268800  0.38916000  1
  C  C463  1  0.59365000  0.37268800  0.61084000  1
  H  H464  1  0.92830000  0.83018000  0.38749000  1
  H  H465  1  0.07170000  0.83018000  0.61251000  1
  H  H466  1  0.42830000  0.33018000  0.38749000  1
  H  H467  1  0.57170000  0.33018000  0.61251000  1
  C  C468  1  0.88174000  0.85618700  0.41857000  1
  C  C469  1  0.11826000  0.85618700  0.58143000  1
  C  C470  1  0.38174000  0.35618700  0.41857000  1
  C  C471  1  0.61826000  0.35618700  0.58143000  1
  H  H472  1  0.88717000  0.80589000  0.43825000  1
  H  H473  1  0.11283000  0.80589000  0.56175000  1
  H  H474  1  0.38717000  0.30589000  0.43825000  1
  H  H475  1  0.61283000  0.30589000  0.56175000  1
  C  C476  1  0.84356000  0.98649000  0.39065000  1
  C  C477  1  0.15644000  0.98649000  0.60935000  1
  C  C478  1  0.34356000  0.48649000  0.39065000  1
  C  C479  1  0.65644000  0.48649000  0.60935000  1
  H  H480  1  0.82022000  0.02641000  0.38969000  1
  H  H481  1  0.17978000  0.02641000  0.61031000  1
  H  H482  1  0.32022000  0.52641000  0.38969000  1
  H  H483  1  0.67978000  0.52641000  0.61031000  1
  C  C484  1  0.86956000  0.00629000  0.36284000  1
  C  C485  1  0.13044000  0.00629000  0.63716000  1
  C  C486  1  0.36956000  0.50629000  0.36284000  1
  C  C487  1  0.63044000  0.50629000  0.63716000  1
  H  H488  1  0.86546000  0.05968000  0.34493000  1
  H  H489  1  0.13454000  0.05968000  0.65507000  1
  H  H490  1  0.36546000  0.55968000  0.34493000  1
  H  H491  1  0.63454000  0.55968000  0.65507000  1
  C  C492  1  0.94768000  0.13446000  0.25363000  1
  C  C493  1  0.05232000  0.13446000  0.74637000  1
  C  C494  1  0.44768000  0.63446000  0.25363000  1
  C  C495  1  0.55232000  0.63446000  0.74637000  1
  C  C496  1  0.97177000  0.14757000  0.22363000  1
  C  C497  1  0.02823000  0.14757000  0.77637000  1
  C  C498  1  0.47177000  0.64757000  0.22363000  1
  C  C499  1  0.52823000  0.64757000  0.77637000  1
  H  H500  1  0.99201000  0.10219000  0.21992000  1
  H  H501  1  0.00799000  0.10219000  0.78008000  1
  H  H502  1  0.49201000  0.60219000  0.21992000  1
  H  H503  1  0.50799000  0.60219000  0.78008000  1
  C  C504  1  0.96697000  0.22787000  0.19793000  1
  C  C505  1  0.03303000  0.22787000  0.80207000  1
  C  C506  1  0.46697000  0.72787000  0.19793000  1
  C  C507  1  0.53303000  0.72787000  0.80207000  1
  H  H508  1  0.98494000  0.23849000  0.17804000  1
  H  H509  1  0.01506000  0.23849000  0.82196000  1
  H  H510  1  0.48494000  0.73849000  0.17804000  1
  H  H511  1  0.51506000  0.73849000  0.82196000  1
  C  C512  1  0.91487000  0.27947000  0.23214000  1
  C  C513  1  0.08513000  0.27947000  0.76786000  1
  C  C514  1  0.41487000  0.77947000  0.23214000  1
  C  C515  1  0.58513000  0.77947000  0.76786000  1
  H  H516  1  0.89543000  0.32653000  0.23544000  1
  H  H517  1  0.10457000  0.32653000  0.76456000  1
  H  H518  1  0.39543000  0.82653000  0.23544000  1
  H  H519  1  0.60457000  0.82653000  0.76456000  1
  C  C520  1  0.91867000  0.20327000  0.25953000  1
  C  C521  1  0.08133000  0.20327000  0.74047000  1
  C  C522  1  0.41867000  0.70327000  0.25953000  1
  C  C523  1  0.58133000  0.70327000  0.74047000  1
  H  H524  1  0.90239000  0.19776000  0.28130000  1
  H  H525  1  0.09761000  0.19776000  0.71870000  1
  H  H526  1  0.40239000  0.69776000  0.28130000  1
  H  H527  1  0.59761000  0.69776000  0.71870000  1
  C  C528  1  0.82857000  0.21857000  0.04223000  1
  C  C529  1  0.17143000  0.21857000  0.95777000  1
  C  C530  1  0.32857000  0.71857000  0.04223000  1
  C  C531  1  0.67143000  0.71857000  0.95777000  1
  C  C532  1  0.85027000  0.17256000  0.07933000  1
  C  C533  1  0.14973000  0.17256000  0.92067000  1
  C  C534  1  0.35027000  0.67256000  0.07933000  1
  C  C535  1  0.64973000  0.67256000  0.92067000  1
  H  H536  1  0.84794000  0.10723000  0.08173000  1
  H  H537  1  0.15206000  0.10723000  0.91827000  1
  H  H538  1  0.34794000  0.60723000  0.08173000  1
  H  H539  1  0.65206000  0.60723000  0.91827000  1
  C  C540  1  0.87417000  0.22106000  0.11113000  1
  C  C541  1  0.12583000  0.22106000  0.88887000  1
  C  C542  1  0.37417000  0.72106000  0.11113000  1
  C  C543  1  0.62583000  0.72106000  0.88887000  1
  H  H544  1  0.88869000  0.18811000  0.13566000  1
  H  H545  1  0.11131000  0.18811000  0.86434000  1
  H  H546  1  0.38869000  0.68811000  0.13566000  1
  H  H547  1  0.61131000  0.68811000  0.86434000  1
  C  C548  1  0.85816000  0.35798000  0.07473000  1
  C  C549  1  0.14184000  0.35798000  0.92527000  1
  C  C550  1  0.35816000  0.85798000  0.07473000  1
  C  C551  1  0.64184000  0.85798000  0.92527000  1
  H  H552  1  0.86135000  0.42295000  0.07213000  1
  H  H553  1  0.13865000  0.42295000  0.92787000  1
  H  H554  1  0.36135000  0.92295000  0.07213000  1
  H  H555  1  0.63865000  0.92295000  0.92787000  1
  C  C556  1  0.83257000  0.31077000  0.04233000  1
  C  C557  1  0.16743000  0.31077000  0.95767000  1
  C  C558  1  0.33257000  0.81077000  0.04233000  1
  C  C559  1  0.66743000  0.81077000  0.95767000  1
  H  H560  1  0.81695000  0.34484000  0.01884000  1
  H  H561  1  0.18305000  0.34484000  0.98116000  1
  H  H562  1  0.31695000  0.84484000  0.01884000  1
  H  H563  1  0.68305000  0.84484000  0.98116000  1
  C  C564  1  0.80447000  0.16655000  0.00563000  1
  C  C565  1  0.19553000  0.16655000  0.99437000  1
  C  C566  1  0.30447000  0.66655000  0.00563000  1
  C  C567  1  0.69553000  0.66655000  0.99437000  1
  C  C568  1  0.78797000  0.03136000  0.97087000  1
  C  C569  1  0.21203000  0.03136000  0.02913000  1
  C  C570  1  0.28797000  0.53136000  0.97087000  1
  C  C571  1  0.71203000  0.53136000  0.02913000  1
  C  C572  1  0.75497000  0.16296000  0.94547000  1
  C  C573  1  0.24503000  0.16296000  0.05453000  1
  C  C574  1  0.25497000  0.66296000  0.94547000  1
  C  C575  1  0.74503000  0.66296000  0.05453000  1
  C  C576  1  0.79397000  0.93015000  0.96776000  1
  C  C577  1  0.20603000  0.93015000  0.03224000  1
  C  C578  1  0.29397000  0.43015000  0.96776000  1
  C  C579  1  0.70603000  0.43015000  0.03224000  1
  C  C580  1  0.77057000  0.87911000  0.93476000  1
  C  C581  1  0.22943000  0.87911000  0.06524000  1
  C  C582  1  0.27057000  0.37911000  0.93476000  1
  C  C583  1  0.72943000  0.37911000  0.06524000  1
  H  H584  1  0.75006000  0.90886000  0.91350000  1
  H  H585  1  0.24994000  0.90886000  0.08650000  1
  H  H586  1  0.25006000  0.40886000  0.91350000  1
  H  H587  1  0.74994000  0.40886000  0.08650000  1
  C  C588  1  0.77696000  0.78332000  0.93235000  1
  C  C589  1  0.22304000  0.78332000  0.06765000  1
  C  C590  1  0.27696000  0.28332000  0.93235000  1
  C  C591  1  0.72304000  0.28332000  0.06765000  1
  H  H592  1  0.76201000  0.74873000  0.90875000  1
  H  H593  1  0.23799000  0.74873000  0.09125000  1
  H  H594  1  0.26201000  0.24873000  0.90875000  1
  H  H595  1  0.73799000  0.24873000  0.09125000  1
  C  C596  1  0.82545000  0.79021000  0.99396000  1
  C  C597  1  0.17455000  0.79021000  0.00604000  1
  C  C598  1  0.32545000  0.29021000  0.99396000  1
  C  C599  1  0.67455000  0.29021000  0.00604000  1
  H  H600  1  0.84514000  0.75828000  0.01521000  1
  H  H601  1  0.15486000  0.75828000  0.98479000  1
  H  H602  1  0.34514000  0.25828000  0.01521000  1
  H  H603  1  0.65486000  0.25828000  0.98479000  1
  C  C604  1  0.82276000  0.88302000  0.00000000  1
  C  C605  1  0.17724000  0.88302000  0.00094000  1
  C  C606  1  0.32276000  0.38302000  0.00000000  1
  C  C607  1  0.67724000  0.38302000  0.00094000  1
  H  H608  1  0.83967000  0.91453000  0.02271000  1
  H  H609  1  0.16033000  0.91453000  0.97729000  1
  H  H610  1  0.33967000  0.41453000  0.02271000  1
  H  H611  1  0.66033000  0.41453000  0.97729000  1
  C  C612  1  0.72377000  0.21056000  0.91107000  1
  C  C613  1  0.27623000  0.21056000  0.08893000  1
  C  C614  1  0.22377000  0.71056000  0.91107000  1
  C  C615  1  0.77623000  0.71056000  0.08893000  1
  C  C616  1  0.72157000  0.30596000  0.91097000  1
  C  C617  1  0.27843000  0.30596000  0.08903000  1
  C  C618  1  0.22157000  0.80596000  0.91097000  1
  C  C619  1  0.77843000  0.80596000  0.08903000  1
  H  H620  1  0.73917000  0.34082000  0.93284000  1
  H  H621  1  0.26083000  0.34082000  0.06716000  1
  H  H622  1  0.23917000  0.84082000  0.93284000  1
  H  H623  1  0.76083000  0.84082000  0.06716000  1
  C  C624  1  0.69317000  0.35086000  0.87837000  1
  C  C625  1  0.30683000  0.35086000  0.12163000  1
  C  C626  1  0.19317000  0.85086000  0.87837000  1
  C  C627  1  0.80683000  0.85086000  0.12163000  1
  H  H628  1  0.69205000  0.41658000  0.87836000  1
  H  H629  1  0.30795000  0.41658000  0.12164000  1
  H  H630  1  0.19205000  0.91658000  0.87836000  1
  H  H631  1  0.80795000  0.91658000  0.12164000  1
  C  C632  1  0.66807000  0.21238000  0.84876000  1
  C  C633  1  0.33193000  0.21238000  0.15124000  1
  C  C634  1  0.16807000  0.71238000  0.84876000  1
  C  C635  1  0.83193000  0.71238000  0.15124000  1
  H  H636  1  0.64921000  0.17945000  0.82719000  1
  H  H637  1  0.35079000  0.17945000  0.17281000  1
  H  H638  1  0.14921000  0.67945000  0.82719000  1
  H  H639  1  0.85079000  0.67945000  0.17281000  1
  C  C640  1  0.69557000  0.16167000  0.88107000  1
  C  C641  1  0.30443000  0.16167000  0.11893000  1
  C  C642  1  0.19557000  0.66167000  0.88107000  1
  C  C643  1  0.80443000  0.66167000  0.11893000  1
  H  H644  1  0.69459000  0.09583000  0.88206000  1
  H  H645  1  0.30541000  0.09583000  0.11794000  1
  H  H646  1  0.19459000  0.59583000  0.88206000  1
  H  H647  1  0.80541000  0.59583000  0.11794000  1
