# generated using pymatgen
data_ZnH8C12(N2Cl)2
_symmetry_space_group_name_H-M   'P 1'
_cell_length_a   14.43341000
_cell_length_b   17.81406778
_cell_length_c   31.54152000
_cell_angle_alpha   100.45777072
_cell_angle_beta   90.00000000
_cell_angle_gamma   113.89818935
_symmetry_Int_Tables_number   1
_chemical_formula_structural   ZnH8C12(N2Cl)2
_chemical_formula_sum   'Zn12 H96 C144 N48 Cl24'
_cell_volume   7267.00651493
_cell_formula_units_Z   12
loop_
 _symmetry_equiv_pos_site_id
 _symmetry_equiv_pos_as_xyz
  1  'x, y, z'
loop_
 _atom_site_type_symbol
 _atom_site_label
 _atom_site_symmetry_multiplicity
 _atom_site_fract_x
 _atom_site_fract_y
 _atom_site_fract_z
 _atom_site_occupancy
  C  C64  1  0.32062000  0.96936000  0.20597000  1.0
  C  C65  1  0.35126000  0.03064000  0.79403000  1.0
  C  C72  1  0.30700000  0.91674000  0.23367000  1.0
  C  C73  1  0.39026000  0.08326000  0.76633000  1.0
  C  C88  1  0.20810000  0.85594000  0.23567000  1.0
  C  C89  1  0.35216000  0.14406000  0.76433000  1.0
  C  C96  1  0.14570000  0.89994000  0.18267000  1.0
  C  C97  1  0.24576000  0.10006000  0.81733000  1.0
  C  C108  1  0.24020000  0.96414000  0.17897000  1.0
  C  C109  1  0.27606000  0.03586000  0.82103000  1.0
  C  C124  1  0.52890000  0.13514000  0.16797000  1.0
  C  C125  1  0.39376000  0.86486000  0.83203000  1.0
  C  C132  1  0.42632000  0.03336000  0.20097000  1.0
  C  C133  1  0.39296000  0.96664000  0.79903000  1.0
  C  C144  1  0.59294000  0.09414000  0.22047000  1.0
  C  C145  1  0.49880000  0.90586000  0.77953000  1.0
  C  C156  1  0.54120000  0.18974000  0.13787000  1.0
  C  C157  1  0.35146000  0.81026000  0.86213000  1.0
  C  C164  1  0.46453700  0.17330000  0.10695000  1.0
  C  C165  1  0.29123700  0.82670000  0.89305000  1.0
  C  C176  1  0.48623800  0.23410000  0.07985000  1.0
  C  C177  1  0.25213800  0.76590000  0.92015000  1.0
  C  C184  1  0.64097000  0.30992000  0.10765000  1.0
  C  C185  1  0.33105000  0.69008000  0.89235000  1.0
  C  C196  1  0.63016500  0.26012000  0.13706000  1.0
  C  C197  1  0.37004500  0.73988000  0.86294000  1.0
  C  C212  1  0.68384000  0.10276000  0.24697000  1.0
  C  C213  1  0.58108000  0.89724000  0.75303000  1.0
  C  C216  1  0.77925000  0.16034000  0.24147000  1.0
  C  C217  1  0.61891000  0.83966000  0.75853000  1.0
  C  C228  1  0.75784000  0.06954000  0.30357000  1.0
  C  C229  1  0.68830000  0.93046000  0.69643000  1.0
  C  C240  1  0.86095000  0.16974000  0.26916000  1.0
  C  C241  1  0.69121000  0.83026000  0.73084000  1.0
  C  C252  1  0.88932000  0.33974000  0.45867000  1.0
  C  C253  1  0.54958000  0.66026000  0.54133000  1.0
  C  C260  1  0.67273000  0.05514000  0.27847000  1.0
  C  C261  1  0.61759000  0.94486000  0.72153000  1.0
  C  C272  1  0.98773000  0.33894000  0.45877000  1.0
  C  C273  1  0.64879000  0.66106000  0.54123000  1.0
  C  C284  1  0.00352000  0.28992000  0.42227000  1.0
  C  C285  1  0.71360000  0.71008000  0.57773000  1.0
  C  C296  1  0.81943000  0.29492000  0.42446000  1.0
  C  C297  1  0.52451000  0.70508000  0.57554000  1.0
  C  C308  1  0.84504000  0.24512000  0.39086000  1.0
  C  C309  1  0.59992000  0.75488000  0.60914000  1.0
  C  C320  1  0.86444000  0.39154000  0.49587000  1.0
  C  C321  1  0.47290000  0.60846000  0.50413000  1.0
  C  C328  1  0.74703000  0.42414000  0.53197000  1.0
  C  C329  1  0.32289000  0.57586000  0.46803000  1.0
  C  C332  1  0.91123000  0.49294000  0.55627000  1.0
  C  C333  1  0.41829000  0.50706000  0.44373000  1.0
  C  C336  1  0.63980000  0.41394000  0.53327000  1.0
  C  C337  1  0.22586000  0.58606000  0.46673000  1.0
  C  C340  1  0.46478000  0.34810000  0.50436000  1.0
  C  C341  1  0.11668000  0.65190000  0.49564000  1.0
  C  C348  1  0.56799000  0.35892000  0.50316000  1.0
  C  C349  1  0.20907000  0.64108000  0.49684000  1.0
  C  C356  1  0.51547000  0.45252000  0.56554000  1.0
  C  C357  1  0.06295000  0.54748000  0.43446000  1.0
  C  C364  1  0.61148000  0.46192000  0.56625000  1.0
  C  C365  1  0.14956000  0.53808000  0.43375000  1.0
  C  C372  1  0.04283000  0.66234000  0.65057000  1.0
  C  C373  1  0.38049000  0.33766000  0.34943000  1.0
  C  C380  1  0.96954000  0.60794000  0.62036000  1.0
  C  C381  1  0.36160000  0.39206000  0.37964000  1.0
  C  C388  1  0.99213000  0.55474000  0.58857000  1.0
  C  C389  1  0.43739000  0.44526000  0.41143000  1.0
  C  C392  1  0.14374000  0.85774000  0.73277000  1.0
  C  C393  1  0.28600000  0.14226000  0.26723000  1.0
  C  C400  1  0.10814000  0.91714000  0.73167000  1.0
  C  C401  1  0.19100000  0.08286000  0.26833000  1.0
  C  C408  1  0.14323000  0.97154000  0.70387000  1.0
  C  C409  1  0.17169000  0.02846000  0.29613000  1.0
  C  C412  1  0.09014000  0.55794000  0.58986000  1.0
  C  C413  1  0.53220000  0.44206000  0.41014000  1.0
  C  C420  1  0.15984000  0.61534000  0.62106000  1.0
  C  C421  1  0.54450000  0.38466000  0.37894000  1.0
  C  C428  1  0.25535000  0.90274000  0.68236000  1.0
  C  C429  1  0.35261000  0.09726000  0.31764000  1.0
  C  C436  1  0.22255000  0.96392000  0.67996000  1.0
  C  C437  1  0.25863000  0.03608000  0.32004000  1.0
  C  C444  1  0.10770000  0.03706000  0.70097000  1.0
  C  C445  1  0.07064000  0.96294000  0.29903000  1.0
  C  C448  1  0.11050000  0.14166000  0.67007000  1.0
  C  C449  1  0.96884000  0.85834000  0.32993000  1.0
  C  C452  1  0.00076000  0.09824000  0.71967000  1.0
  C  C453  1  0.90252000  0.90176000  0.28033000  1.0
  C  C456  1  0.15150000  0.19726000  0.63836000  1.0
  C  C457  1  0.95424000  0.80274000  0.36164000  1.0
  C  C460  1  0.22096200  0.18730000  0.61084000  1.0
  C  C461  1  0.03366200  0.81270000  0.38916000  1.0
  C  C468  1  0.26207300  0.23652000  0.58143000  1.0
  C  C469  1  0.02555300  0.76348000  0.41857000  1.0
  C  C476  1  0.16995000  0.31288000  0.60935000  1.0
  C  C477  1  0.85707000  0.68712000  0.39065000  1.0
  C  C484  1  0.12415000  0.26088000  0.63716000  1.0
  C  C485  1  0.86327000  0.73912000  0.36284000  1.0
  C  C492  1  0.91786000  0.10464000  0.74637000  1.0
  C  C493  1  0.81322000  0.89536000  0.25363000  1.0
  C  C496  1  0.88066000  0.05646000  0.77637000  1.0
  C  C497  1  0.82420000  0.94354000  0.22363000  1.0
  C  C504  1  0.80516000  0.06606000  0.80207000  1.0
  C  C505  1  0.73910000  0.93394000  0.19793000  1.0
  C  C512  1  0.80566000  0.17026000  0.76786000  1.0
  C  C513  1  0.63540000  0.82974000  0.23214000  1.0
  C  C520  1  0.87806000  0.16266000  0.74047000  1.0
  C  C521  1  0.71540000  0.83734000  0.25953000  1.0
  C  C528  1  0.95286000  0.34286000  0.95777000  1.0
  C  C529  1  0.61000000  0.65714000  0.04223000  1.0
  C  C532  1  0.97717000  0.29946000  0.92067000  1.0
  C  C533  1  0.67771000  0.70054000  0.07933000  1.0
  C  C540  1  0.90477000  0.25166000  0.88887000  1.0
  C  C541  1  0.65311000  0.74834000  0.11113000  1.0
  C  C548  1  0.78386000  0.28368000  0.92527000  1.0
  C  C549  1  0.50018000  0.71632000  0.07473000  1.0
  C  C556  1  0.85666000  0.33486000  0.95767000  1.0
  C  C557  1  0.52180000  0.66514000  0.04233000  1.0
  C  C564  1  0.02898000  0.39106000  0.99437000  1.0
  C  C565  1  0.63792000  0.60894000  0.00563000  1.0
  C  C568  1  0.18067000  0.42406000  0.02913000  1.0
  C  C569  1  0.75661000  0.57594000  0.97087000  1.0
  C  C572  1  0.08207000  0.49006000  0.05453000  1.0
  C  C573  1  0.59201000  0.50994000  0.94547000  1.0
  C  C576  1  0.27588000  0.41206000  0.03224000  1.0
  C  C577  1  0.86382000  0.58794000  0.96776000  1.0
  C  C580  1  0.35032000  0.45886000  0.06524000  1.0
  C  C581  1  0.89146000  0.54114000  0.93476000  1.0
  C  C588  1  0.43972000  0.44608000  0.06765000  1.0
  C  C589  1  0.99364000  0.55392000  0.93235000  1.0
  C  C596  1  0.38434000  0.34910000  0.00604000  1.0
  C  C597  1  0.03524000  0.65090000  0.99396000  1.0
  C  C604  1  0.29422000  0.35448000  0.00000000  1.0
  C  C605  1  0.93974000  0.64552000  0.99906000  1.0
  C  C612  1  0.06567000  0.55246000  0.08893000  1.0
  C  C613  1  0.51321000  0.44754000  0.91107000  1.0
  C  C616  1  0.97247000  0.55686000  0.08903000  1.0
  C  C617  1  0.41561000  0.44314000  0.91097000  1.0
  C  C624  1  0.95597000  0.61366000  0.12163000  1.0
  C  C625  1  0.34231000  0.38634000  0.87837000  1.0
  C  C632  1  0.11955000  0.66386000  0.15124000  1.0
  C  C633  1  0.45569000  0.33614000  0.84876000  1.0
  C  C640  1  0.14276000  0.60886000  0.11893000  1.0
  C  C641  1  0.53390000  0.39114000  0.88107000  1.0
  Cl  Cl4  1  0.22362000  0.32392000  0.47538000  1.0
  Cl  Cl5  1  0.89970000  0.67608000  0.52462000  1.0
  Cl  Cl8  1  0.29634000  0.50756000  0.57447000  1.0
  Cl  Cl9  1  0.78878000  0.49244000  0.42553000  1.0
  Cl  Cl16  1  0.59764600  0.21512000  0.82792000  1.0
  Cl  Cl17  1  0.38252600  0.78488000  0.17208000  1.0
  Cl  Cl20  1  0.60014000  0.04170000  0.87606000  1.0
  Cl  Cl21  1  0.55844000  0.95830000  0.12394000  1.0
  Cl  Cl28  1  0.98729840  0.69185680  0.26198880  1.0
  Cl  Cl29  1  0.29544160  0.30814320  0.73801120  1.0
  Cl  Cl32  1  0.86659820  0.76085640  0.17688000  1.0
  Cl  Cl33  1  0.10574180  0.23914360  0.82312000  1.0
  Cl  Cl40  1  0.59297000  0.31228000  0.97406000  1.0
  Cl  Cl41  1  0.28069000  0.68772000  0.02594000  1.0
  Cl  Cl44  1  0.71107000  0.49770000  0.06874000  1.0
  Cl  Cl45  1  0.21337000  0.50230000  0.93126000  1.0
  Cl  Cl52  1  0.39650000  0.77434000  0.67108000  1.0
  Cl  Cl53  1  0.62216000  0.22566000  0.32892000  1.0
  Cl  Cl56  1  0.21412000  0.70374000  0.76247000  1.0
  Cl  Cl57  1  0.51038000  0.29626000  0.23753000  1.0
  Cl  Cl120  1  0.11285850  0.23585700  0.32005830  1.0
  Cl  Cl121  1  0.87700150  0.76414300  0.67994170  1.0
  Cl  Cl140  1  0.95032850  0.05297700  0.37374870  1.0
  Cl  Cl141  1  0.89735150  0.94702300  0.62625130  1.0
  H  H76  1  0.36277000  0.92064000  0.25141000  1.0
  H  H77  1  0.44213000  0.07936000  0.74859000  1.0
  H  H92  1  0.19648000  0.82070000  0.25621000  1.0
  H  H93  1  0.37578000  0.17930000  0.74379000  1.0
  H  H100  1  0.08928000  0.89416000  0.16489000  1.0
  H  H101  1  0.19512000  0.10584000  0.83511000  1.0
  H  H112  1  0.24869000  0.00064000  0.15968000  1.0
  H  H113  1  0.24773000  0.99872000  0.84032000  1.0
  H  H168  1  0.40197000  0.12548000  0.10382000  1.0
  H  H169  1  0.27649000  0.87452000  0.89618000  1.0
  H  H180  1  0.43192000  0.22590000  0.06009000  1.0
  H  H181  1  0.20602000  0.77410000  0.93991000  1.0
  H  H188  1  0.70436000  0.35628000  0.10787000  1.0
  H  H189  1  0.34808000  0.64372000  0.89213000  1.0
  H  H200  1  0.68557000  0.27406000  0.15772000  1.0
  H  H201  1  0.41151000  0.72594000  0.84228000  1.0
  H  H220  1  0.78937000  0.19270000  0.21961000  1.0
  H  H221  1  0.59667000  0.80730000  0.78039000  1.0
  H  H232  1  0.74974000  0.03836000  0.32584000  1.0
  H  H233  1  0.71138000  0.96164000  0.67416000  1.0
  H  H244  1  0.92635000  0.21092000  0.26640000  1.0
  H  H245  1  0.71543000  0.78908000  0.73360000  1.0
  H  H264  1  0.60812000  0.01408000  0.28242000  1.0
  H  H265  1  0.59404000  0.98592000  0.71758000  1.0
  H  H276  1  0.03847000  0.36954000  0.48206000  1.0
  H  H277  1  0.66893000  0.63046000  0.51794000  1.0
  H  H288  1  0.07007000  0.29220000  0.41983000  1.0
  H  H289  1  0.77787000  0.70780000  0.58017000  1.0
  H  H300  1  0.75489000  0.29732000  0.42338000  1.0
  H  H301  1  0.45757000  0.70268000  0.57662000  1.0
  H  H312  1  0.79610000  0.21326000  0.36721000  1.0
  H  H313  1  0.58284000  0.78674000  0.63279000  1.0
  H  H344  1  0.41405000  0.30828000  0.48293000  1.0
  H  H345  1  0.10577000  0.69172000  0.51707000  1.0
  H  H352  1  0.58622000  0.32608000  0.48032000  1.0
  H  H353  1  0.26014000  0.67392000  0.51968000  1.0
  H  H360  1  0.49863000  0.48864000  0.58717000  1.0
  H  H361  1  0.00999000  0.51136000  0.41283000  1.0
  H  H368  1  0.66011000  0.50062000  0.58883000  1.0
  H  H369  1  0.15949000  0.49938000  0.41117000  1.0
  H  H376  1  0.02581000  0.69884000  0.67185000  1.0
  H  H377  1  0.32697000  0.30116000  0.32815000  1.0
  H  H384  1  0.90268000  0.60584000  0.62082000  1.0
  H  H385  1  0.29684000  0.39416000  0.37918000  1.0
  H  H396  1  0.11668000  0.82070000  0.75218000  1.0
  H  H397  1  0.29598000  0.17930000  0.24782000  1.0
  H  H404  1  0.05825000  0.92130000  0.75059000  1.0
  H  H405  1  0.13695000  0.07870000  0.24941000  1.0
  H  H416  1  0.10756000  0.52072000  0.56934000  1.0
  H  H417  1  0.58684000  0.47928000  0.43066000  1.0
  H  H424  1  0.22718000  0.61874000  0.62101000  1.0
  H  H425  1  0.60844000  0.38126000  0.37899000  1.0
  H  H432  1  0.30821000  0.89912000  0.66540000  1.0
  H  H433  1  0.40909000  0.10088000  0.33460000  1.0
  H  H440  1  0.25340500  0.00125000  0.66169000  1.0
  H  H441  1  0.25153000  0.99750000  0.33831000  1.0
  H  H464  1  0.24152000  0.14340000  0.61251000  1.0
  H  H465  1  0.09812000  0.85660000  0.38749000  1.0
  H  H472  1  0.30694000  0.22566000  0.56175000  1.0
  H  H473  1  0.08128000  0.77434000  0.43825000  1.0
  H  H480  1  0.15337000  0.35956000  0.61031000  1.0
  H  H481  1  0.79381000  0.64044000  0.38969000  1.0
  H  H488  1  0.07486000  0.26908000  0.65507000  1.0
  H  H489  1  0.80578000  0.73092000  0.34493000  1.0
  H  H500  1  0.90580000  0.01598000  0.78008000  1.0
  H  H501  1  0.88982000  0.98402000  0.21992000  1.0
  H  H508  1  0.77657000  0.03012000  0.82196000  1.0
  H  H509  1  0.74645000  0.96988000  0.17804000  1.0
  H  H516  1  0.77804000  0.20914000  0.76456000  1.0
  H  H517  1  0.56890000  0.79086000  0.23544000  1.0
  H  H524  1  0.89985000  0.19522000  0.71870000  1.0
  H  H525  1  0.70463000  0.80478000  0.28130000  1.0
  H  H536  1  0.04483000  0.30412000  0.91827000  1.0
  H  H537  1  0.74071000  0.69588000  0.08173000  1.0
  H  H544  1  0.92320000  0.22262000  0.86434000  1.0
  H  H545  1  0.70058000  0.77738000  0.13566000  1.0
  H  H552  1  0.71570000  0.27730000  0.92787000  1.0
  H  H553  1  0.43840000  0.72270000  0.07213000  1.0
  H  H560  1  0.83821000  0.36610000  0.98116000  1.0
  H  H561  1  0.47211000  0.63390000  0.01884000  1.0
  H  H584  1  0.34108000  0.49988000  0.08650000  1.0
  H  H585  1  0.84120000  0.50012000  0.91350000  1.0
  H  H592  1  0.48926000  0.47598000  0.09125000  1.0
  H  H593  1  0.01328000  0.52402000  0.90875000  1.0
  H  H600  1  0.39658000  0.30972000  0.98479000  1.0
  H  H601  1  0.08686000  0.69028000  0.01521000  1.0
  H  H608  1  0.24580000  0.32066000  0.97729000  1.0
  H  H609  1  0.92514000  0.67934000  0.02271000  1.0
  H  H620  1  0.92001000  0.52166000  0.06716000  1.0
  H  H621  1  0.39835000  0.47834000  0.93284000  1.0
  H  H628  1  0.89137000  0.61590000  0.12164000  1.0
  H  H629  1  0.27547000  0.38410000  0.87836000  1.0
  H  H636  1  0.17134000  0.70158000  0.17281000  1.0
  H  H637  1  0.46976000  0.29842000  0.82719000  1.0
  H  H644  1  0.20958000  0.61082000  0.11794000  1.0
  H  H645  1  0.59876000  0.38918000  0.88206000  1.0
  N  N60  1  0.12942000  0.84696000  0.20888000  1.0
  N  N61  1  0.28246000  0.15304000  0.79112000  1.0
  N  N68  1  0.43433000  0.08076000  0.17208000  1.0
  N  N69  1  0.35357000  0.91924000  0.82792000  1.0
  N  N84  1  0.60883000  0.14476000  0.19158000  1.0
  N  N85  1  0.46407000  0.85524000  0.80842000  1.0
  N  N104  1  0.50322000  0.03836000  0.22688000  1.0
  N  N105  1  0.46486000  0.96164000  0.77312000  1.0
  N  N116  1  0.56571000  0.29554000  0.07887000  1.0
  N  N117  1  0.27017000  0.70446000  0.92113000  1.0
  N  N128  1  0.93333000  0.24094000  0.39097000  1.0
  N  N129  1  0.69239000  0.75906000  0.60903000  1.0
  N  N136  1  0.85172000  0.12474000  0.29897000  1.0
  N  N137  1  0.72698000  0.87526000  0.70103000  1.0
  N  N148  1  0.76492000  0.37494000  0.49897000  1.0
  N  N149  1  0.38998000  0.62506000  0.50103000  1.0
  N  N152  1  0.81482000  0.48214000  0.56137000  1.0
  N  N153  1  0.33268000  0.51786000  0.43863000  1.0
  N  N160  1  0.94033000  0.44796000  0.52348000  1.0
  N  N161  1  0.49237000  0.55204000  0.47652000  1.0
  N  N172  1  0.44131000  0.39634000  0.53707000  1.0
  N  N173  1  0.04497000  0.60366000  0.46293000  1.0
  N  N192  1  0.13943000  0.66876000  0.65267000  1.0
  N  N193  1  0.47067000  0.33124000  0.34733000  1.0
  N  N204  1  0.21513000  0.84896000  0.70777000  1.0
  N  N205  1  0.36617000  0.15104000  0.29223000  1.0
  N  N208  1  0.03467000  0.04044000  0.72608000  1.0
  N  N209  1  0.99423000  0.95956000  0.27392000  1.0
  N  N224  1  0.14828000  0.08464000  0.67288000  1.0
  N  N225  1  0.06364000  0.91536000  0.32712000  1.0
  N  N236  1  0.23461000  0.30508000  0.58167000  1.0
  N  N237  1  0.92953000  0.69492000  0.41833000  1.0
  N  N248  1  0.03276000  0.14964000  0.69267000  1.0
  N  N249  1  0.88312000  0.85036000  0.30733000  1.0
  N  N256  1  0.80688000  0.24206000  0.88958000  1.0
  N  N257  1  0.56482000  0.75794000  0.11042000  1.0
  N  N268  1  0.77347000  0.12586000  0.79847000  1.0
  N  N269  1  0.64761000  0.87414000  0.20153000  1.0
  N  N280  1  0.01197000  0.44964000  0.02262000  1.0
  N  N281  1  0.56233000  0.55036000  0.97738000  1.0
  N  N292  1  0.11117000  0.37564000  0.99627000  1.0
  N  N293  1  0.73553000  0.62436000  0.00000000  1.0
  N  N304  1  0.45439000  0.39146000  0.03654000  1.0
  N  N305  1  0.06293000  0.60854000  0.96346000  1.0
  N  N316  1  0.16957000  0.48224000  0.05983000  1.0
  N  N317  1  0.68733000  0.51776000  0.94017000  1.0
  N  N324  1  0.02707000  0.66384000  0.15212000  1.0
  N  N325  1  0.36323000  0.33616000  0.84788000  1.0
  Zn  Zn0  1  0.29499650  0.38657640  0.54121840  1.0
  Zn  Zn1  1  0.90842010  0.61342360  0.45878160  1.0
  Zn  Zn12  1  0.68316000  0.15248000  0.84786000  1.0
  Zn  Zn13  1  0.53068000  0.84752000  0.15214000  1.0
  Zn  Zn24  1  0.99643780  0.74143780  0.20151870  1.0
  Zn  Zn25  1  0.25500000  0.25856220  0.79848130  1.0
  Zn  Zn36  1  0.58872000  0.37792000  0.03876000  1.0
  Zn  Zn37  1  0.21080000  0.62208000  0.96124000  1.0
  Zn  Zn48  1  0.25010840  0.74835680  0.70048890  1.0
  Zn  Zn49  1  0.50175160  0.25164320  0.29951110  1.0
  Zn  Zn80  1  0.96910610  0.16085000  0.34461500  1.0
  Zn  Zn81  1  0.80825610  0.83915000  0.65538500  1.0
