# generated using pymatgen
data_Y3H22C28O19
_symmetry_space_group_name_H-M   'P 1'
_cell_length_a   11.39181100
_cell_length_b   12.06981200
_cell_length_c   12.99571300
_cell_angle_alpha   86.89810000
_cell_angle_beta   67.17610000
_cell_angle_gamma   72.20010000
_symmetry_Int_Tables_number   1
_chemical_formula_structural   Y3H22C28O19
_chemical_formula_sum   'Y6 H44 C56 O38'
_cell_volume   1563.88528982
_cell_formula_units_Z   2
loop_
 _symmetry_equiv_pos_site_id
 _symmetry_equiv_pos_as_xyz
  1  'x, y, z'
loop_
 _atom_site_type_symbol
 _atom_site_label
 _atom_site_symmetry_multiplicity
 _atom_site_fract_x
 _atom_site_fract_y
 _atom_site_fract_z
 _atom_site_occupancy
  Y  Y0  1  0.58550300  0.55854300  0.36106300  1
  Y  Y1  1  0.41449700  0.44145700  0.63893700  1
  Y  Y2  1  0.54150300  0.85145300  0.24574300  1
  Y  Y3  1  0.45849700  0.14854700  0.75425700  1
  Y  Y4  1  0.54576300  0.23937300  0.37908300  1
  Y  Y5  1  0.45423700  0.76062700  0.62091700  1
  O  O6  1  0.38062000  0.61612000  0.33712000  1
  O  O7  1  0.61938000  0.38388000  0.66288000  1
  O  O8  1  0.36593000  0.78402000  0.25622000  1
  O  O9  1  0.63407000  0.21598000  0.74378000  1
  O  O10  1  0.75197000  0.63982000  0.36582000  1
  O  O11  1  0.24803000  0.36018000  0.63418000  1
  O  O12  1  0.72288000  0.81652000  0.29842000  1
  O  O13  1  0.27712000  0.18348000  0.70158000  1
  O  O14  1  0.65632000  0.64342000  0.19832000  1
  O  O15  1  0.34368000  0.35658000  0.80168000  1
  O  O16  1  0.69663000  0.75122000  0.05712000  1
  O  O17  1  0.30337000  0.24878000  0.94288000  1
  O  O18  1  0.74173000  0.23502000  0.38092000  1
  O  O19  1  0.25827000  0.76498000  0.61908000  1
  O  O20  1  0.76923000  0.40992000  0.35862000  1
  O  O21  1  0.23077000  0.59008000  0.64138000  1
  O  O22  1  0.38863000  0.00262000  0.36682000  1
  O  O23  1  0.61137000  0.00000000  0.63318000  1
  O  O24  1  0.36482000  0.18332000  0.41752000  1
  O  O25  1  0.63518000  0.81668000  0.58248000  1
  O  O26  1  0.61642000  0.40752000  0.22812000  1
  O  O27  1  0.38358000  0.59248000  0.77188000  1
  O  O28  1  0.44823000  0.34082000  0.25222000  1
  O  O29  1  0.55177000  0.65918000  0.74778000  1
  O  O30  1  0.66723000  0.14272000  0.21092000  1
  O  O31  1  0.33277000  0.85728000  0.78908000  1
  O  O32  1  0.66343000  0.97432000  0.15692000  1
  O  O33  1  0.33657000  0.02568000  0.84308000  1
  C  C34  1  0.31953000  0.70313000  0.29883000  1
  C  C35  1  0.68047000  0.29687000  0.70117000  1
  C  C36  1  0.18154000  0.71013000  0.30793000  1
  C  C37  1  0.81846000  0.28987000  0.69207000  1
  C  C38  1  0.11964000  0.63123000  0.36653000  1
  C  C39  1  0.88036000  0.36877000  0.63347000  1
  H  H40  1  0.16390000  0.57260000  0.40010000  1
  H  H41  1  0.83610000  0.42740000  0.59990000  1
  C  C42  1  0.99236000  0.63843000  0.37603000  1
  C  C43  1  0.00764000  0.36157000  0.62397000  1
  H  H44  1  0.95190000  0.58470000  0.41630000  1
  H  H45  1  0.04810000  0.41530000  0.58370000  1
  C  C46  1  0.92416000  0.72463000  0.32613000  1
  C  C47  1  0.07584000  0.27537000  0.67387000  1
  C  C48  1  0.98656000  0.80413000  0.26814000  1
  C  C49  1  0.01344000  0.19587000  0.73186000  1
  H  H50  1  0.94190000  0.86300000  0.23500000  1
  H  H51  1  0.05810000  0.13700000  0.76500000  1
  C  C52  1  0.11354000  0.79823000  0.25844000  1
  C  C53  1  0.88646000  0.20177000  0.74156000  1
  H  H54  1  0.15350000  0.85250000  0.21910000  1
  H  H55  1  0.84650000  0.14750000  0.78090000  1
  C  C56  1  0.79016000  0.72643000  0.33163000  1
  C  C57  1  0.20984000  0.27357000  0.66837000  1
  C  C58  1  0.73403000  0.66053000  0.10113000  1
  C  C59  1  0.26597000  0.33947000  0.89887000  1
  C  C60  1  0.87024000  0.57573000  0.04833000  1
  C  C61  1  0.12976000  0.42427000  0.95167000  1
  C  C62  1  0.91584000  0.48184000  0.10274000  1
  C  C63  1  0.08416000  0.51816000  0.89726000  1
  H  H64  1  0.85900000  0.46880000  0.17300000  1
  H  H65  1  0.14100000  0.53120000  0.82700000  1
  C  C66  1  0.95584000  0.59304000  0.94516000  1
  C  C67  1  0.04416000  0.40696000  0.05484000  1
  H  H68  1  0.92680000  0.65610000  0.90720000  1
  H  H69  1  0.07320000  0.34390000  0.09280000  1
  C  C70  1  0.81173000  0.30233000  0.36453000  1
  C  C71  1  0.18827000  0.69767000  0.63547000  1
  C  C72  1  0.95204000  0.24953000  0.35503000  1
  C  C73  1  0.04796000  0.75047000  0.64497000  1
  C  C74  1  0.00000000  0.13143000  0.36844000  1
  C  C75  1  0.00156000  0.86857000  0.63156000  1
  H  H76  1  0.94530000  0.08400000  0.37550000  1
  H  H77  1  0.05470000  0.91600000  0.62450000  1
  C  C78  1  0.12434000  0.08463000  0.37124000  1
  C  C79  1  0.87566000  0.91537000  0.62876000  1
  H  H80  1  0.15710000  0.00510000  0.37810000  1
  H  H81  1  0.84290000  0.99490000  0.62190000  1
  C  C82  1  0.20093000  0.15663000  0.36373000  1
  C  C83  1  0.79907000  0.84337000  0.63627000  1
  C  C84  1  0.15634000  0.27383000  0.34553000  1
  C  C85  1  0.84366000  0.72617000  0.65447000  1
  H  H86  1  0.20990000  0.32110000  0.33700000  1
  H  H87  1  0.79010000  0.67890000  0.66300000  1
  C  C88  1  0.03214000  0.31963000  0.34003000  1
  C  C89  1  0.96786000  0.68037000  0.65997000  1
  H  H90  1  0.00250000  0.39750000  0.32620000  1
  H  H91  1  0.00000000  0.60250000  0.67380000  1
  C  C92  1  0.32763000  0.11163000  0.38243000  1
  C  C93  1  0.67237000  0.88837000  0.61757000  1
  C  C94  1  0.52594000  0.39693000  0.19873000  1
  C  C95  1  0.47406000  0.60307000  0.80127000  1
  C  C96  1  0.51184000  0.45113000  0.09573000  1
  C  C97  1  0.48816000  0.54887000  0.90427000  1
  C  C98  1  0.62194000  0.46933000  0.01013000  1
  C  C99  1  0.37806000  0.53067000  0.98987000  1
  H  H100  1  0.70410000  0.44870000  0.01670000  1
  H  H101  1  0.29590000  0.55130000  0.98330000  1
  C  C102  1  0.39084000  0.48173000  0.08533000  1
  C  C103  1  0.60916000  0.51827000  0.91467000  1
  H  H104  1  0.31690000  0.46940000  0.14270000  1
  H  H105  1  0.68310000  0.53060000  0.85730000  1
  C  C106  1  0.72053000  0.04753000  0.15193000  1
  C  C107  1  0.27947000  0.95247000  0.84807000  1
  C  C108  1  0.86514000  0.02403000  0.07163000  1
  C  C109  1  0.13486000  0.97597000  0.92837000  1
  C  C110  1  0.93494000  0.09964000  0.07124000  1
  C  C111  1  0.06506000  0.90036000  0.92876000  1
  H  H112  1  0.89170000  0.16750000  0.11850000  1
  H  H113  1  0.10830000  0.83250000  0.88150000  1
  C  C114  1  0.93044000  0.92484000  0.00000000  1
  C  C115  1  0.06956000  0.07516000  0.00064000  1
  H  H116  1  0.88420000  0.87370000  0.00000000  1
  H  H117  1  0.11580000  0.12630000  0.00220000  1
  O  O118  1  0.48123000  0.76072000  0.42222000  1
  O  O119  1  0.51877000  0.23928000  0.57778000  1
  H  H120  1  0.40640000  0.78340000  0.44240000  1
  H  H121  1  0.59360000  0.21660000  0.55760000  1
  O  O122  1  0.45532000  0.43113190  0.45315190  1
  O  O123  1  0.54468000  0.56886810  0.54684810  1
  H  H124  1  0.39440000  0.45740000  0.43940000  1
  H  H125  1  0.60560000  0.54260000  0.56060000  1
