# generated using pymatgen
data_Ag3H9C13N2O7
_symmetry_space_group_name_H-M   'P 1'
_cell_length_a   11.79691300
_cell_length_b   16.37111300
_cell_length_c   15.68451600
_cell_angle_alpha   90.00000000
_cell_angle_beta   92.15310000
_cell_angle_gamma   90.00000000
_symmetry_Int_Tables_number   1
_chemical_formula_structural   Ag3H9C13N2O7
_chemical_formula_sum   'Ag24 H72 C104 N16 O56'
_cell_volume   3026.98999886
_cell_formula_units_Z   8
loop_
 _symmetry_equiv_pos_site_id
 _symmetry_equiv_pos_as_xyz
  1  'x, y, z'
loop_
 _atom_site_type_symbol
 _atom_site_label
 _atom_site_symmetry_multiplicity
 _atom_site_fract_x
 _atom_site_fract_y
 _atom_site_fract_z
 _atom_site_occupancy
  O  O0  1  0.00177000  0.25434000  0.05145000  1
  O  O1  1  0.00000000  0.25434000  0.44855000  1
  O  O2  1  0.50177000  0.75434000  0.05145000  1
  O  O3  1  0.49823000  0.75434000  0.44855000  1
  O  O4  1  0.00000000  0.74566000  0.94855000  1
  O  O5  1  0.00177000  0.74566000  0.55145000  1
  O  O6  1  0.49823000  0.24566000  0.94855000  1
  O  O7  1  0.50177000  0.24566000  0.55145000  1
  Ag  Ag8  1  0.18522800  0.74732500  0.06864600  1
  Ag  Ag9  1  0.81477200  0.74732500  0.43135400  1
  Ag  Ag10  1  0.68522800  0.24732500  0.06864600  1
  Ag  Ag11  1  0.31477200  0.24732500  0.43135400  1
  Ag  Ag12  1  0.81477200  0.25267500  0.93135400  1
  Ag  Ag13  1  0.18522800  0.25267500  0.56864600  1
  Ag  Ag14  1  0.31477200  0.75267500  0.93135400  1
  Ag  Ag15  1  0.68522800  0.75267500  0.56864600  1
  Ag  Ag16  1  0.92118100  0.17024600  0.14703700  1
  Ag  Ag17  1  0.07881900  0.17024600  0.35296300  1
  Ag  Ag18  1  0.42118100  0.67024600  0.14703700  1
  Ag  Ag19  1  0.57881900  0.67024600  0.35296300  1
  Ag  Ag20  1  0.07881900  0.82975400  0.85296300  1
  Ag  Ag21  1  0.92118100  0.82975400  0.64703700  1
  Ag  Ag22  1  0.57881900  0.32975400  0.85296300  1
  Ag  Ag23  1  0.42118100  0.32975400  0.64703700  1
  Ag  Ag24  1  0.86534900  0.32339600  0.21696600  1
  Ag  Ag25  1  0.13465100  0.32339600  0.28303400  1
  Ag  Ag26  1  0.36534900  0.82339600  0.21696600  1
  Ag  Ag27  1  0.63465100  0.82339600  0.28303400  1
  Ag  Ag28  1  0.13465100  0.67660400  0.78303400  1
  Ag  Ag29  1  0.86534900  0.67660400  0.71696600  1
  Ag  Ag30  1  0.63465100  0.17660400  0.78303400  1
  Ag  Ag31  1  0.36534900  0.17660400  0.71696600  1
  O  O32  1  0.18737000  0.61474000  0.04315000  1
  O  O33  1  0.81263000  0.61474000  0.45685000  1
  O  O34  1  0.68737000  0.11474000  0.04315000  1
  O  O35  1  0.31263000  0.11474000  0.45685000  1
  O  O36  1  0.81263000  0.38526000  0.95685000  1
  O  O37  1  0.18737000  0.38526000  0.54315000  1
  O  O38  1  0.31263000  0.88526000  0.95685000  1
  O  O39  1  0.68737000  0.88526000  0.54315000  1
  O  O40  1  0.26656000  0.62154000  0.91585000  1
  O  O41  1  0.73344000  0.62154000  0.58415000  1
  O  O42  1  0.76656000  0.12154000  0.91585000  1
  O  O43  1  0.23344000  0.12154000  0.58415000  1
  O  O44  1  0.73344000  0.37846000  0.08415000  1
  O  O45  1  0.26656000  0.37846000  0.41585000  1
  O  O46  1  0.23344000  0.87846000  0.08415000  1
  O  O47  1  0.76656000  0.87846000  0.41585000  1
  O  O48  1  0.00246000  0.36584000  0.13384000  1
  O  O49  1  0.00000000  0.36584000  0.36616000  1
  O  O50  1  0.50246000  0.86584000  0.13384000  1
  O  O51  1  0.49754000  0.86584000  0.36616000  1
  O  O52  1  0.00000000  0.63416000  0.86616000  1
  O  O53  1  0.00246000  0.63416000  0.63384000  1
  O  O54  1  0.49754000  0.13416000  0.86616000  1
  O  O55  1  0.50246000  0.13416000  0.63384000  1
  O  O56  1  0.27436000  0.24684000  0.81235000  1
  O  O57  1  0.72564000  0.24684000  0.68765000  1
  O  O58  1  0.77436000  0.74684000  0.81235000  1
  O  O59  1  0.22564000  0.74684000  0.68765000  1
  O  O60  1  0.72564000  0.75316000  0.18765000  1
  O  O61  1  0.27436000  0.75316000  0.31235000  1
  O  O62  1  0.22564000  0.25316000  0.18765000  1
  O  O63  1  0.77436000  0.25316000  0.31235000  1
  O  O64  1  0.34318000  0.36445000  0.76695000  1
  O  O65  1  0.65682000  0.36445000  0.73305000  1
  O  O66  1  0.84318000  0.86445000  0.76695000  1
  O  O67  1  0.15682000  0.86445000  0.73305000  1
  O  O68  1  0.65682000  0.63555000  0.23305000  1
  O  O69  1  0.34318000  0.63555000  0.26695000  1
  O  O70  1  0.15682000  0.13555000  0.23305000  1
  O  O71  1  0.84318000  0.13555000  0.26695000  1
  N  N72  1  0.06706000  0.74655000  0.18115000  1
  N  N73  1  0.93294000  0.74655000  0.31885000  1
  N  N74  1  0.56706000  0.24655000  0.18115000  1
  N  N75  1  0.43294000  0.24655000  0.31885000  1
  N  N76  1  0.93294000  0.25345000  0.81885000  1
  N  N77  1  0.06706000  0.25345000  0.68115000  1
  N  N78  1  0.43294000  0.75345000  0.81885000  1
  N  N79  1  0.56706000  0.75345000  0.68115000  1
  N  N80  1  0.96972000  0.06096000  0.05666000  1
  N  N81  1  0.03028000  0.06096000  0.44334000  1
  N  N82  1  0.46972000  0.56096000  0.05666000  1
  N  N83  1  0.53028000  0.56096000  0.44334000  1
  N  N84  1  0.03028000  0.93904000  0.94334000  1
  N  N85  1  0.96972000  0.93904000  0.55666000  1
  N  N86  1  0.53028000  0.43904000  0.94334000  1
  N  N87  1  0.46972000  0.43904000  0.55666000  1
  C  C88  1  0.21838000  0.58336000  0.97353000  1
  C  C89  1  0.78162000  0.58336000  0.52647000  1
  C  C90  1  0.71838000  0.08336000  0.97353000  1
  C  C91  1  0.28162000  0.08336000  0.52647000  1
  C  C92  1  0.78162000  0.41664000  0.02647000  1
  C  C93  1  0.21838000  0.41664000  0.47353000  1
  C  C94  1  0.28162000  0.91664000  0.02647000  1
  C  C95  1  0.71838000  0.91664000  0.47353000  1
  C  C96  1  0.03289000  0.32616000  0.06868000  1
  C  C97  1  0.96711000  0.32616000  0.43132000  1
  C  C98  1  0.53289000  0.82616000  0.06868000  1
  C  C99  1  0.46711000  0.82616000  0.43132000  1
  C  C100  1  0.96711000  0.67384000  0.93132000  1
  C  C101  1  0.03289000  0.67384000  0.56868000  1
  C  C102  1  0.46711000  0.17384000  0.93132000  1
  C  C103  1  0.53289000  0.17384000  0.56868000  1
  C  C104  1  0.28609000  0.32226000  0.81643000  1
  C  C105  1  0.71391000  0.32226000  0.68357000  1
  C  C106  1  0.78609000  0.82226000  0.81643000  1
  C  C107  1  0.21391000  0.82226000  0.68357000  1
  C  C108  1  0.71391000  0.67774000  0.18357000  1
  C  C109  1  0.28609000  0.67774000  0.31643000  1
  C  C110  1  0.21391000  0.17774000  0.18357000  1
  C  C111  1  0.78609000  0.17774000  0.31643000  1
  C  C112  1  0.19537000  0.49356000  0.96054000  1
  C  C113  1  0.80463000  0.49356000  0.53946000  1
  C  C114  1  0.69537000  0.99356000  0.96054000  1
  C  C115  1  0.30463000  0.99356000  0.53946000  1
  C  C116  1  0.80463000  0.50644000  0.03946000  1
  C  C117  1  0.19537000  0.50644000  0.46054000  1
  C  C118  1  0.30463000  0.00644000  0.03946000  1
  C  C119  1  0.69537000  0.00644000  0.46054000  1
  C  C120  1  0.12747000  0.45166000  0.01656000  1
  C  C121  1  0.87253000  0.45166000  0.48344000  1
  C  C122  1  0.62747000  0.95166000  0.01656000  1
  C  C123  1  0.37253000  0.95166000  0.48344000  1
  C  C124  1  0.87253000  0.54834000  0.98344000  1
  C  C125  1  0.12747000  0.54834000  0.51656000  1
  C  C126  1  0.37253000  0.04834000  0.98344000  1
  C  C127  1  0.62747000  0.04834000  0.51656000  1
  H  H128  1  0.09300000  0.48050000  0.05960000  1
  H  H129  1  0.90700000  0.48050000  0.44040000  1
  H  H130  1  0.59300000  0.98050000  0.05960000  1
  H  H131  1  0.40700000  0.98050000  0.44040000  1
  H  H132  1  0.90700000  0.51950000  0.94040000  1
  H  H133  1  0.09300000  0.51950000  0.55960000  1
  H  H134  1  0.40700000  0.01950000  0.94040000  1
  H  H135  1  0.59300000  0.01950000  0.55960000  1
  C  C136  1  0.10948000  0.36806000  0.00995000  1
  C  C137  1  0.89052000  0.36806000  0.49005000  1
  C  C138  1  0.60948000  0.86806000  0.00995000  1
  C  C139  1  0.39052000  0.86806000  0.49005000  1
  C  C140  1  0.89052000  0.63194000  0.99005000  1
  C  C141  1  0.10948000  0.63194000  0.50995000  1
  C  C142  1  0.39052000  0.13194000  0.99005000  1
  C  C143  1  0.60948000  0.13194000  0.50995000  1
  C  C144  1  0.16158000  0.32655000  0.94404000  1
  C  C145  1  0.83842000  0.32655000  0.55596000  1
  C  C146  1  0.66158000  0.82655000  0.94404000  1
  C  C147  1  0.33842000  0.82655000  0.55596000  1
  C  C148  1  0.83842000  0.67345000  0.05596000  1
  C  C149  1  0.16158000  0.67345000  0.44404000  1
  C  C150  1  0.33842000  0.17345000  0.05596000  1
  C  C151  1  0.66158000  0.17345000  0.44404000  1
  H  H152  1  0.15080000  0.27050000  0.93810000  1
  H  H153  1  0.84920000  0.27050000  0.56190000  1
  H  H154  1  0.65080000  0.77050000  0.93810000  1
  H  H155  1  0.34920000  0.77050000  0.56190000  1
  H  H156  1  0.84920000  0.72950000  0.06190000  1
  H  H157  1  0.15080000  0.72950000  0.43810000  1
  H  H158  1  0.34920000  0.22950000  0.06190000  1
  H  H159  1  0.65080000  0.22950000  0.43810000  1
  C  C160  1  0.22957000  0.36806000  0.88734000  1
  C  C161  1  0.77043000  0.36806000  0.61266000  1
  C  C162  1  0.72957000  0.86806000  0.88734000  1
  C  C163  1  0.27043000  0.86806000  0.61266000  1
  C  C164  1  0.77043000  0.63194000  0.11266000  1
  C  C165  1  0.22957000  0.63194000  0.38734000  1
  C  C166  1  0.27043000  0.13194000  0.11266000  1
  C  C167  1  0.72957000  0.13194000  0.38734000  1
  C  C168  1  0.24438000  0.45146000  0.89564000  1
  C  C169  1  0.75562000  0.45146000  0.60436000  1
  C  C170  1  0.74438000  0.95146000  0.89564000  1
  C  C171  1  0.25562000  0.95146000  0.60436000  1
  C  C172  1  0.75562000  0.54854000  0.10436000  1
  C  C173  1  0.24438000  0.54854000  0.39564000  1
  C  C174  1  0.25562000  0.04854000  0.10436000  1
  C  C175  1  0.74438000  0.04854000  0.39564000  1
  H  H176  1  0.28790000  0.47930000  0.85710000  1
  H  H177  1  0.71210000  0.47930000  0.64290000  1
  H  H178  1  0.78790000  0.97930000  0.85710000  1
  H  H179  1  0.21210000  0.97930000  0.64290000  1
  H  H180  1  0.71210000  0.52070000  0.14290000  1
  H  H181  1  0.28790000  0.52070000  0.35710000  1
  H  H182  1  0.21210000  0.02070000  0.14290000  1
  H  H183  1  0.78790000  0.02070000  0.35710000  1
  C  C184  1  0.03348000  0.67706000  0.21537000  1
  C  C185  1  0.96652000  0.67706000  0.28463000  1
  C  C186  1  0.53348000  0.17706000  0.21537000  1
  C  C187  1  0.46652000  0.17706000  0.28463000  1
  C  C188  1  0.96652000  0.32294000  0.78463000  1
  C  C189  1  0.03348000  0.32294000  0.71537000  1
  C  C190  1  0.46652000  0.82294000  0.78463000  1
  C  C191  1  0.53348000  0.82294000  0.71537000  1
  H  H192  1  0.05560000  0.62760000  0.19190000  1
  H  H193  1  0.94440000  0.62760000  0.30810000  1
  H  H194  1  0.55560000  0.12760000  0.19190000  1
  H  H195  1  0.44440000  0.12760000  0.30810000  1
  H  H196  1  0.94440000  0.37240000  0.80810000  1
  H  H197  1  0.05560000  0.37240000  0.69190000  1
  H  H198  1  0.44440000  0.87240000  0.80810000  1
  H  H199  1  0.55560000  0.87240000  0.69190000  1
  C  C200  1  0.03331100  0.81647000  0.21558000  1
  C  C201  1  0.96668900  0.81647000  0.28442000  1
  C  C202  1  0.53331100  0.31647000  0.21558000  1
  C  C203  1  0.46668900  0.31647000  0.28442000  1
  C  C204  1  0.96668900  0.18353000  0.78442000  1
  C  C205  1  0.03331100  0.18353000  0.71558000  1
  C  C206  1  0.46668900  0.68353000  0.78442000  1
  C  C207  1  0.53331100  0.68353000  0.71558000  1
  H  H208  1  0.05560000  0.86580000  0.19200000  1
  H  H209  1  0.94440000  0.86580000  0.30800000  1
  H  H210  1  0.55560000  0.36580000  0.19200000  1
  H  H211  1  0.44440000  0.36580000  0.30800000  1
  H  H212  1  0.94440000  0.13420000  0.80800000  1
  H  H213  1  0.05560000  0.13420000  0.69200000  1
  H  H214  1  0.44440000  0.63420000  0.80800000  1
  H  H215  1  0.55560000  0.63420000  0.69200000  1
  C  C216  1  0.02439000  0.07687000  0.98632000  1
  C  C217  1  0.97561000  0.07687000  0.51368000  1
  C  C218  1  0.52439000  0.57687000  0.98632000  1
  C  C219  1  0.47561000  0.57687000  0.51368000  1
  C  C220  1  0.97561000  0.92313000  0.01368000  1
  C  C221  1  0.02439000  0.92313000  0.48632000  1
  C  C222  1  0.47561000  0.42313000  0.01368000  1
  C  C223  1  0.52439000  0.42313000  0.48632000  1
  H  H224  1  0.04420000  0.13050000  0.97510000  1
  H  H225  1  0.95580000  0.13050000  0.52490000  1
  H  H226  1  0.54420000  0.63050000  0.97510000  1
  H  H227  1  0.45580000  0.63050000  0.52490000  1
  H  H228  1  0.95580000  0.86950000  0.02490000  1
  H  H229  1  0.04420000  0.86950000  0.47510000  1
  H  H230  1  0.45580000  0.36950000  0.02490000  1
  H  H231  1  0.54420000  0.36950000  0.47510000  1
  C  C232  1  0.94669000  0.98363000  0.07127000  1
  C  C233  1  0.05331000  0.98363000  0.42873000  1
  C  C234  1  0.44669000  0.48363000  0.07127000  1
  C  C235  1  0.55331000  0.48363000  0.42873000  1
  C  C236  1  0.05331000  0.01637000  0.92873000  1
  C  C237  1  0.94669000  0.01637000  0.57127000  1
  C  C238  1  0.55331000  0.51637000  0.92873000  1
  C  C239  1  0.44669000  0.51637000  0.57127000  1
  H  H240  1  0.91060000  0.96930000  0.12070000  1
  H  H241  1  0.08940000  0.96930000  0.37930000  1
  H  H242  1  0.41060000  0.46930000  0.12070000  1
  H  H243  1  0.58940000  0.46930000  0.37930000  1
  H  H244  1  0.08940000  0.03070000  0.87930000  1
  H  H245  1  0.91060000  0.03070000  0.62070000  1
  H  H246  1  0.58940000  0.53070000  0.87930000  1
  H  H247  1  0.41060000  0.53070000  0.62070000  1
