# generated using pymatgen
data_LaH12C21NO7
_symmetry_space_group_name_H-M   'P 1'
_cell_length_a   24.24478000
_cell_length_b   24.24478000
_cell_length_c   13.17058000
_cell_angle_alpha   90.00000000
_cell_angle_beta   90.00000000
_cell_angle_gamma   120.00000000
_symmetry_Int_Tables_number   1
_chemical_formula_structural   LaH12C21NO7
_chemical_formula_sum   'La9 H108 C189 N9 O63'
_cell_volume   6704.58695313
_cell_formula_units_Z   9
loop_
 _symmetry_equiv_pos_site_id
 _symmetry_equiv_pos_as_xyz
  1  'x, y, z'
loop_
 _atom_site_type_symbol
 _atom_site_label
 _atom_site_symmetry_multiplicity
 _atom_site_fract_x
 _atom_site_fract_y
 _atom_site_fract_z
 _atom_site_occupancy
  La  La0  1  0.33334300  0.35097200  0.16663000  1
  La  La1  1  0.64902800  0.98237100  0.16663000  1
  La  La2  1  0.01762900  0.66665700  0.16663000  1
  La  La3  1  0.35097200  0.33334300  0.83337000  1
  La  La4  1  0.98237100  0.64902800  0.83337000  1
  La  La5  1  0.66665700  0.01762900  0.83337000  1
  La  La6  1  0.00000967  0.68430533  0.49996333  1
  La  La7  1  0.31569467  0.31570433  0.49996333  1
  La  La8  1  0.68429567  0.00000000  0.49996333  1
  O  O9  1  0.39584000  0.29763000  0.22394000  1
  O  O10  1  0.70237000  0.09821000  0.22394000  1
  O  O11  1  0.90179000  0.60416000  0.22394000  1
  O  O12  1  0.29763000  0.39584000  0.77606000  1
  O  O13  1  0.09821000  0.70237000  0.77606000  1
  O  O14  1  0.60416000  0.90179000  0.77606000  1
  O  O15  1  0.06250667  0.63096333  0.55727333  1
  O  O16  1  0.36903667  0.43154333  0.55727333  1
  O  O17  1  0.56845667  0.93749333  0.55727333  1
  O  O18  1  0.96429667  0.72917333  0.10939333  1
  O  O19  1  0.76487667  0.03570333  0.10939333  1
  O  O20  1  0.27082667  0.23512333  0.10939333  1
  O  O21  1  0.72917333  0.96429667  0.89060667  1
  O  O22  1  0.03570333  0.76487667  0.89060667  1
  O  O23  1  0.23512333  0.27082667  0.89060667  1
  O  O24  1  0.63096333  0.06250667  0.44272667  1
  O  O25  1  0.43154333  0.36903667  0.44272667  1
  O  O26  1  0.93749333  0.56845667  0.44272667  1
  O  O27  1  0.31274000  0.26352000  0.33293000  1
  O  O28  1  0.73648000  0.04922000  0.33293000  1
  O  O29  1  0.95078000  0.68726000  0.33293000  1
  O  O30  1  0.26352000  0.31274000  0.66707000  1
  O  O31  1  0.04922000  0.73648000  0.66707000  1
  O  O32  1  0.68726000  0.95078000  0.66707000  1
  O  O33  1  0.97940667  0.59685333  0.66626333  1
  O  O34  1  0.40314667  0.38255333  0.66626333  1
  O  O35  1  0.61744667  0.02059333  0.66626333  1
  O  O36  1  0.93018667  0.64607333  0.00040333  1
  O  O37  1  0.71588667  0.06981333  0.00040333  1
  O  O38  1  0.35392667  0.28411333  0.00040333  1
  O  O39  1  0.64607333  0.93018667  0.00000000  1
  O  O40  1  0.06981333  0.71588667  0.00000000  1
  O  O41  1  0.28411333  0.35392667  0.00000000  1
  O  O42  1  0.59685333  0.97940667  0.33373667  1
  O  O43  1  0.38255333  0.40314667  0.33373667  1
  O  O44  1  0.02059333  0.61744667  0.33373667  1
  O  O45  1  0.09235000  0.76596000  0.24984000  1
  O  O46  1  0.23404000  0.32639000  0.24984000  1
  O  O47  1  0.67361000  0.90765000  0.24984000  1
  O  O48  1  0.76596000  0.09235000  0.75016000  1
  O  O49  1  0.32639000  0.23404000  0.75016000  1
  O  O50  1  0.90765000  0.67361000  0.75016000  1
  O  O51  1  0.75901667  0.09929333  0.58317333  1
  O  O52  1  0.90070667  0.65972333  0.58317333  1
  O  O53  1  0.34027667  0.24098333  0.58317333  1
  O  O54  1  0.43262667  0.42568333  0.08349333  1
  O  O55  1  0.99305667  0.56737333  0.08349333  1
  O  O56  1  0.57431667  0.00694333  0.08349333  1
  O  O57  1  0.42568333  0.43262667  0.91650667  1
  O  O58  1  0.56737333  0.99305667  0.91650667  1
  O  O59  1  0.00694333  0.57431667  0.91650667  1
  O  O60  1  0.09929333  0.75901667  0.41682667  1
  O  O61  1  0.65972333  0.90070667  0.41682667  1
  O  O62  1  0.24098333  0.34027667  0.41682667  1
  N  N72  1  0.35507400  0.02174000  0.33333000  1
  N  N73  1  0.97826000  0.33333400  0.33333000  1
  N  N74  1  0.66666600  0.64492600  0.33333000  1
  N  N75  1  0.02174000  0.35507400  0.66667000  1
  N  N76  1  0.33333400  0.97826000  0.66667000  1
  N  N77  1  0.64492600  0.66666600  0.66667000  1
  N  N78  1  0.68840667  0.68840733  0.00000333  1
  N  N79  1  0.00000067  0.31159333  0.00000333  1
  N  N80  1  0.31159267  0.00000000  0.00000333  1
  C  C81  1  0.35515000  0.07954000  0.32135000  1
  C  C82  1  0.92046000  0.27561000  0.32135000  1
  C  C83  1  0.72439000  0.64485000  0.32135000  1
  C  C84  1  0.07954000  0.35515000  0.67865000  1
  C  C85  1  0.27561000  0.92046000  0.67865000  1
  C  C86  1  0.64485000  0.72439000  0.67865000  1
  C  C87  1  0.02181667  0.41287333  0.65468333  1
  C  C88  1  0.58712667  0.60894333  0.65468333  1
  C  C89  1  0.39105667  0.97818333  0.65468333  1
  C  C90  1  0.74620667  0.68848333  0.01198333  1
  C  C91  1  0.94227667  0.25379333  0.01198333  1
  C  C92  1  0.31151667  0.05772333  0.01198333  1
  C  C93  1  0.68848333  0.74620667  0.98801667  1
  C  C94  1  0.25379333  0.94227667  0.98801667  1
  C  C95  1  0.05772333  0.31151667  0.98801667  1
  C  C96  1  0.41287333  0.02181667  0.34531667  1
  C  C97  1  0.60894333  0.58712667  0.34531667  1
  C  C98  1  0.97818333  0.39105667  0.34531667  1
  C  C99  1  0.30436000  0.08654000  0.35636000  1
  C  C100  1  0.91346000  0.21782000  0.35636000  1
  C  C101  1  0.78218000  0.69564000  0.35636000  1
  C  C102  1  0.08654000  0.30436000  0.64364000  1
  C  C103  1  0.21782000  0.91346000  0.64364000  1
  C  C104  1  0.69564000  0.78218000  0.64364000  1
  C  C105  1  0.97102667  0.41987333  0.68969333  1
  C  C106  1  0.58012667  0.55115333  0.68969333  1
  C  C107  1  0.44884667  0.02897333  0.68969333  1
  C  C108  1  0.75320667  0.63769333  0.97697333  1
  C  C109  1  0.88448667  0.24679333  0.97697333  1
  C  C110  1  0.36230667  0.11551333  0.97697333  1
  C  C111  1  0.63769333  0.75320667  0.02302667  1
  C  C112  1  0.24679333  0.88448667  0.02302667  1
  C  C113  1  0.11551333  0.36230667  0.02302667  1
  C  C114  1  0.41987333  0.97102667  0.31030667  1
  C  C115  1  0.55115333  0.58012667  0.31030667  1
  C  C116  1  0.02897333  0.44884667  0.31030667  1
  H  H117  1  0.26937000  0.05223000  0.38673000  1
  H  H118  1  0.94777000  0.21714000  0.38673000  1
  H  H119  1  0.78286000  0.73063000  0.38673000  1
  H  H120  1  0.05223000  0.26937000  0.61327000  1
  H  H121  1  0.21714000  0.94777000  0.61327000  1
  H  H122  1  0.73063000  0.78286000  0.61327000  1
  H  H123  1  0.93603667  0.38556333  0.72006333  1
  H  H124  1  0.61443667  0.55047333  0.72006333  1
  H  H125  1  0.44952667  0.06396333  0.72006333  1
  H  H126  1  0.71889667  0.60270333  0.94660333  1
  H  H127  1  0.88380667  0.28110333  0.94660333  1
  H  H128  1  0.39729667  0.11619333  0.94660333  1
  H  H129  1  0.60270333  0.71889667  0.05339667  1
  H  H130  1  0.28110333  0.88380667  0.05339667  1
  H  H131  1  0.11619333  0.39729667  0.05339667  1
  H  H132  1  0.38556333  0.93603667  0.27993667  1
  H  H133  1  0.55047333  0.61443667  0.27993667  1
  H  H134  1  0.06396333  0.44952667  0.27993667  1
  C  C135  1  0.30596000  0.14474000  0.34576000  1
  C  C136  1  0.85526000  0.16122000  0.34576000  1
  C  C137  1  0.83878000  0.69404000  0.34576000  1
  C  C138  1  0.14474000  0.30596000  0.65424000  1
  C  C139  1  0.16122000  0.85526000  0.65424000  1
  C  C140  1  0.69404000  0.83878000  0.65424000  1
  C  C141  1  0.97262667  0.47807333  0.67909333  1
  C  C142  1  0.52192667  0.49455333  0.67909333  1
  C  C143  1  0.50544667  0.02737333  0.67909333  1
  C  C144  1  0.81140667  0.63929333  0.98757333  1
  C  C145  1  0.82788667  0.18859333  0.98757333  1
  C  C146  1  0.36070667  0.17211333  0.98757333  1
  C  C147  1  0.63929333  0.81140667  0.01242667  1
  C  C148  1  0.18859333  0.82788667  0.01242667  1
  C  C149  1  0.17211333  0.36070667  0.01242667  1
  C  C150  1  0.47807333  0.97262667  0.32090667  1
  C  C151  1  0.49455333  0.52192667  0.32090667  1
  C  C152  1  0.02737333  0.50544667  0.32090667  1
  H  H153  1  0.27187000  0.14833000  0.37083000  1
  H  H154  1  0.85167000  0.12354000  0.37083000  1
  H  H155  1  0.87646000  0.72813000  0.37083000  1
  H  H156  1  0.14833000  0.27187000  0.62917000  1
  H  H157  1  0.12354000  0.85167000  0.62917000  1
  H  H158  1  0.72813000  0.87646000  0.62917000  1
  H  H159  1  0.93853667  0.48166333  0.70416333  1
  H  H160  1  0.51833667  0.45687333  0.70416333  1
  H  H161  1  0.54312667  0.06146333  0.70416333  1
  H  H162  1  0.81499667  0.60520333  0.96250333  1
  H  H163  1  0.79020667  0.18500333  0.96250333  1
  H  H164  1  0.39479667  0.20979333  0.96250333  1
  H  H165  1  0.60520333  0.81499667  0.03749667  1
  H  H166  1  0.18500333  0.79020667  0.03749667  1
  H  H167  1  0.20979333  0.39479667  0.03749667  1
  H  H168  1  0.48166333  0.93853667  0.29583667  1
  H  H169  1  0.45687333  0.51833667  0.29583667  1
  H  H170  1  0.06146333  0.54312667  0.29583667  1
  C  C171  1  0.35376000  0.19484000  0.30146000  1
  C  C172  1  0.80516000  0.15892000  0.30146000  1
  C  C173  1  0.84108000  0.64624000  0.30146000  1
  C  C174  1  0.19484000  0.35376000  0.69854000  1
  C  C175  1  0.15892000  0.80516000  0.69854000  1
  C  C176  1  0.64624000  0.84108000  0.69854000  1
  C  C177  1  0.02042667  0.52817333  0.63479333  1
  C  C178  1  0.47182667  0.49225333  0.63479333  1
  C  C179  1  0.50774667  0.97957333  0.63479333  1
  C  C180  1  0.86150667  0.68709333  0.03187333  1
  C  C181  1  0.82558667  0.13849333  0.03187333  1
  C  C182  1  0.31290667  0.17441333  0.03187333  1
  C  C183  1  0.68709333  0.86150667  0.96812667  1
  C  C184  1  0.13849333  0.82558667  0.96812667  1
  C  C185  1  0.17441333  0.31290667  0.96812667  1
  C  C186  1  0.52817333  0.02042667  0.36520667  1
  C  C187  1  0.49225333  0.47182667  0.36520667  1
  C  C188  1  0.97957333  0.50774667  0.36520667  1
  C  C189  1  0.40625000  0.13253000  0.27075000  1
  C  C190  1  0.86747000  0.27372000  0.27075000  1
  C  C191  1  0.72628000  0.59375000  0.27075000  1
  C  C192  1  0.13253000  0.40625000  0.72925000  1
  C  C193  1  0.27372000  0.86747000  0.72925000  1
  C  C194  1  0.59375000  0.72628000  0.72925000  1
  C  C195  1  0.07291667  0.46586333  0.60408333  1
  C  C196  1  0.53413667  0.60705333  0.60408333  1
  C  C197  1  0.39294667  0.92708333  0.60408333  1
  C  C198  1  0.79919667  0.73958333  0.06258333  1
  C  C199  1  0.94038667  0.20080333  0.06258333  1
  C  C200  1  0.26041667  0.05961333  0.06258333  1
  C  C201  1  0.73958333  0.79919667  0.93741667  1
  C  C202  1  0.20080333  0.94038667  0.93741667  1
  C  C203  1  0.05961333  0.26041667  0.93741667  1
  C  C204  1  0.46586333  0.07291667  0.39591667  1
  C  C205  1  0.60705333  0.53413667  0.39591667  1
  C  C206  1  0.92708333  0.39294667  0.39591667  1
  H  H207  1  0.43977000  0.12883000  0.24463000  1
  H  H208  1  0.87117000  0.31094000  0.24463000  1
  H  H209  1  0.68906000  0.56023000  0.24463000  1
  H  H210  1  0.12883000  0.43977000  0.75537000  1
  H  H211  1  0.31094000  0.87117000  0.75537000  1
  H  H212  1  0.56023000  0.68906000  0.75537000  1
  H  H213  1  0.10643667  0.46216333  0.57796333  1
  H  H214  1  0.53783667  0.64427333  0.57796333  1
  H  H215  1  0.35572667  0.89356333  0.57796333  1
  H  H216  1  0.79549667  0.77310333  0.08870333  1
  H  H217  1  0.97760667  0.20450333  0.08870333  1
  H  H218  1  0.22689667  0.02239333  0.08870333  1
  H  H219  1  0.77310333  0.79549667  0.91129667  1
  H  H220  1  0.20450333  0.97760667  0.91129667  1
  H  H221  1  0.02239333  0.22689667  0.91129667  1
  H  H222  1  0.46216333  0.10643667  0.42203667  1
  H  H223  1  0.64427333  0.53783667  0.42203667  1
  H  H224  1  0.89356333  0.35572667  0.42203667  1
  C  C225  1  0.40646000  0.19154000  0.25946000  1
  C  C226  1  0.80846000  0.21492000  0.25946000  1
  C  C227  1  0.78508000  0.59354000  0.25946000  1
  C  C228  1  0.19154000  0.40646000  0.74054000  1
  C  C229  1  0.21492000  0.80846000  0.74054000  1
  C  C230  1  0.59354000  0.78508000  0.74054000  1
  C  C231  1  0.07312667  0.52487333  0.59279333  1
  C  C232  1  0.47512667  0.54825333  0.59279333  1
  C  C233  1  0.45174667  0.92687333  0.59279333  1
  C  C234  1  0.85820667  0.73979333  0.07387333  1
  C  C235  1  0.88158667  0.14179333  0.07387333  1
  C  C236  1  0.26020667  0.11841333  0.07387333  1
  C  C237  1  0.73979333  0.85820667  0.92612667  1
  C  C238  1  0.14179333  0.88158667  0.92612667  1
  C  C239  1  0.11841333  0.26020667  0.92612667  1
  C  C240  1  0.52487333  0.07312667  0.40720667  1
  C  C241  1  0.54825333  0.47512667  0.40720667  1
  C  C242  1  0.92687333  0.45174667  0.40720667  1
  H  H243  1  0.43937000  0.22613000  0.22623000  1
  H  H244  1  0.77387000  0.21324000  0.22623000  1
  H  H245  1  0.78676000  0.56063000  0.22623000  1
  H  H246  1  0.22613000  0.43937000  0.77377000  1
  H  H247  1  0.21324000  0.77387000  0.77377000  1
  H  H248  1  0.56063000  0.78676000  0.77377000  1
  H  H249  1  0.10603667  0.55946333  0.55956333  1
  H  H250  1  0.44053667  0.54657333  0.55956333  1
  H  H251  1  0.45342667  0.89396333  0.55956333  1
  H  H252  1  0.89279667  0.77270333  0.10710333  1
  H  H253  1  0.87990667  0.10720333  0.10710333  1
  H  H254  1  0.22729667  0.12009333  0.10710333  1
  H  H255  1  0.77270333  0.89279667  0.89289667  1
  H  H256  1  0.10720333  0.87990667  0.89289667  1
  H  H257  1  0.12009333  0.22729667  0.89289667  1
  H  H258  1  0.55946333  0.10603667  0.44043667  1
  H  H259  1  0.54657333  0.44053667  0.44043667  1
  H  H260  1  0.89396333  0.45342667  0.44043667  1
  C  C261  1  0.35566000  0.25624000  0.28646000  1
  C  C262  1  0.74376000  0.09942000  0.28646000  1
  C  C263  1  0.90058000  0.64434000  0.28646000  1
  C  C264  1  0.25624000  0.35566000  0.71354000  1
  C  C265  1  0.09942000  0.74376000  0.71354000  1
  C  C266  1  0.64434000  0.90058000  0.71354000  1
  C  C267  1  0.02232667  0.58957333  0.61979333  1
  C  C268  1  0.41042667  0.43275333  0.61979333  1
  C  C269  1  0.56724667  0.97767333  0.61979333  1
  C  C270  1  0.92290667  0.68899333  0.04687333  1
  C  C271  1  0.76608667  0.07709333  0.04687333  1
  C  C272  1  0.31100667  0.23391333  0.04687333  1
  C  C273  1  0.68899333  0.92290667  0.95312667  1
  C  C274  1  0.07709333  0.76608667  0.95312667  1
  C  C275  1  0.23391333  0.31100667  0.95312667  1
  C  C276  1  0.58957333  0.02232667  0.38020667  1
  C  C277  1  0.43275333  0.41042667  0.38020667  1
  C  C278  1  0.97767333  0.56724667  0.38020667  1
  C  C279  1  0.29617400  0.96276000  0.33333000  1
  C  C280  1  0.03724000  0.33341400  0.33333000  1
  C  C281  1  0.66658600  0.70382600  0.33333000  1
  C  C282  1  0.96276000  0.29617400  0.66667000  1
  C  C283  1  0.33341400  0.03724000  0.66667000  1
  C  C284  1  0.70382600  0.66658600  0.66667000  1
  C  C285  1  0.62942667  0.62950733  0.00000333  1
  C  C286  1  0.00008067  0.37057333  0.00000333  1
  C  C287  1  0.37049267  0.00000000  0.00000333  1
  C  C288  1  0.25517000  0.94924000  0.25646000  1
  C  C289  1  0.05076000  0.30593000  0.25646000  1
  C  C290  1  0.69407000  0.74483000  0.25646000  1
  C  C291  1  0.94924000  0.25517000  0.74354000  1
  C  C292  1  0.30593000  0.05076000  0.74354000  1
  C  C293  1  0.74483000  0.69407000  0.74354000  1
  C  C294  1  0.92183667  0.28257333  0.58979333  1
  C  C295  1  0.71742667  0.63926333  0.58979333  1
  C  C296  1  0.36073667  0.07816333  0.58979333  1
  C  C297  1  0.61590667  0.58850333  0.07687333  1
  C  C298  1  0.97259667  0.38409333  0.07687333  1
  C  C299  1  0.41149667  0.02740333  0.07687333  1
  C  C300  1  0.58850333  0.61590667  0.92312667  1
  C  C301  1  0.38409333  0.97259667  0.92312667  1
  C  C302  1  0.02740333  0.41149667  0.92312667  1
  C  C303  1  0.28257333  0.92183667  0.41020667  1
  C  C304  1  0.63926333  0.71742667  0.41020667  1
  C  C305  1  0.07816333  0.36073667  0.41020667  1
  H  H306  1  0.26447000  0.97863000  0.20423000  1
  H  H307  1  0.02137000  0.28584000  0.20423000  1
  H  H308  1  0.71416000  0.73553000  0.20423000  1
  H  H309  1  0.97863000  0.26447000  0.79577000  1
  H  H310  1  0.28584000  0.02137000  0.79577000  1
  H  H311  1  0.73553000  0.71416000  0.79577000  1
  H  H312  1  0.93113667  0.31196333  0.53756333  1
  H  H313  1  0.68803667  0.61917333  0.53756333  1
  H  H314  1  0.38082667  0.06886333  0.53756333  1
  H  H315  1  0.64529667  0.59780333  0.12910333  1
  H  H316  1  0.95250667  0.35470333  0.12910333  1
  H  H317  1  0.40219667  0.04749333  0.12910333  1
  H  H318  1  0.59780333  0.64529667  0.87089667  1
  H  H319  1  0.35470333  0.95250667  0.87089667  1
  H  H320  1  0.04749333  0.40219667  0.87089667  1
  H  H321  1  0.31196333  0.93113667  0.46243667  1
  H  H322  1  0.61917333  0.68803667  0.46243667  1
  H  H323  1  0.06886333  0.38082667  0.46243667  1
  C  C324  1  0.20017000  0.89294000  0.25556000  1
  C  C325  1  0.10706000  0.30723000  0.25556000  1
  C  C326  1  0.69277000  0.79983000  0.25556000  1
  C  C327  1  0.89294000  0.20017000  0.74444000  1
  C  C328  1  0.30723000  0.10706000  0.74444000  1
  C  C329  1  0.79983000  0.69277000  0.74444000  1
  C  C330  1  0.86683667  0.22627333  0.58889333  1
  C  C331  1  0.77372667  0.64056333  0.58889333  1
  C  C332  1  0.35943667  0.13316333  0.58889333  1
  C  C333  1  0.55960667  0.53350333  0.07777333  1
  C  C334  1  0.97389667  0.44039333  0.07777333  1
  C  C335  1  0.46649667  0.02610333  0.07777333  1
  C  C336  1  0.53350333  0.55960667  0.92222667  1
  C  C337  1  0.44039333  0.97389667  0.92222667  1
  C  C338  1  0.02610333  0.46649667  0.92222667  1
  C  C339  1  0.22627333  0.86683667  0.41110667  1
  C  C340  1  0.64056333  0.77372667  0.41110667  1
  C  C341  1  0.13316333  0.35943667  0.41110667  1
  H  H342  1  0.17277000  0.88323000  0.20033000  1
  H  H343  1  0.11677000  0.28954000  0.20033000  1
  H  H344  1  0.71046000  0.82723000  0.20033000  1
  H  H345  1  0.88323000  0.17277000  0.79967000  1
  H  H346  1  0.28954000  0.11677000  0.79967000  1
  H  H347  1  0.82723000  0.71046000  0.79967000  1
  H  H348  1  0.83943667  0.21656333  0.53366333  1
  H  H349  1  0.78343667  0.62287333  0.53366333  1
  H  H350  1  0.37712667  0.16056333  0.53366333  1
  H  H351  1  0.54989667  0.50610333  0.13300333  1
  H  H352  1  0.95620667  0.45010333  0.13300333  1
  H  H353  1  0.49389667  0.04379333  0.13300333  1
  H  H354  1  0.50610333  0.54989667  0.86699667  1
  H  H355  1  0.45010333  0.95620667  0.86699667  1
  H  H356  1  0.04379333  0.49389667  0.86699667  1
  H  H357  1  0.21656333  0.83943667  0.46633667  1
  H  H358  1  0.62287333  0.78343667  0.46633667  1
  H  H359  1  0.16056333  0.37712667  0.46633667  1
  C  C360  1  0.18277400  0.84936000  0.33333000  1
  C  C361  1  0.15064000  0.33341400  0.33333000  1
  C  C362  1  0.66658600  0.81722600  0.33333000  1
  C  C363  1  0.84936000  0.18277400  0.66667000  1
  C  C364  1  0.33341400  0.15064000  0.66667000  1
  C  C365  1  0.81722600  0.66658600  0.66667000  1
  C  C366  1  0.51602667  0.51610733  0.00000333  1
  C  C367  1  0.00008067  0.48397333  0.00000333  1
  C  C368  1  0.48389267  0.00000000  0.00000333  1
  C  C369  1  0.12097500  0.78755000  0.33333000  1
  C  C370  1  0.21245000  0.33342500  0.33333000  1
  C  C371  1  0.66657500  0.87902500  0.33333000  1
  C  C372  1  0.78755000  0.12097500  0.66667000  1
  C  C373  1  0.33342500  0.21245000  0.66667000  1
  C  C374  1  0.87902500  0.66657500  0.66667000  1
  C  C375  1  0.45421667  0.45430833  0.00000333  1
  C  C376  1  0.00009167  0.54578333  0.00000333  1
  C  C377  1  0.54569167  0.00000000  0.00000333  1
