# generated using pymatgen
data_SiO2
_symmetry_space_group_name_H-M   'P 1'
_cell_length_a   15.38234322
_cell_length_b   15.38234322
_cell_length_c   15.38234322
_cell_angle_alpha   109.47122063
_cell_angle_beta   109.47122063
_cell_angle_gamma   109.47122063
_symmetry_Int_Tables_number   1
_chemical_formula_structural   SiO2
_chemical_formula_sum   'Si24 O48'
_cell_volume   2801.85464736
_cell_formula_units_Z   24
loop_
 _symmetry_equiv_pos_site_id
 _symmetry_equiv_pos_as_xyz
  1  'x, y, z'
loop_
 _atom_site_type_symbol
 _atom_site_label
 _atom_site_symmetry_multiplicity
 _atom_site_fract_x
 _atom_site_fract_y
 _atom_site_fract_z
 _atom_site_occupancy
  O  O2  1  0.28580000  0.69200000  0.69200000  1
  O  O2  1  0.59380000  0.30800000  0.00000000  1
  O  O2  1  0.59380000  0.00000000  0.30800000  1
  O  O2  1  0.00000000  0.30800000  0.59380000  1
  O  O2  1  0.30800000  0.00000000  0.59380000  1
  O  O2  1  0.69200000  0.69200000  0.28580000  1
  O  O2  1  0.00000000  0.59380000  0.30800000  1
  O  O2  1  0.30800000  0.59380000  1.00000000  1
  O  O2  1  0.69200000  0.28580000  0.69200000  1
  O  O2  1  0.71420000  0.40620000  0.40620000  1
  O  O2  1  0.40620000  0.71420000  0.40620000  1
  O  O2  1  0.40620000  0.40620000  0.71420000  1
  O  O3  1  0.29540000  0.63840000  0.84300000  1
  O  O3  1  0.45240000  0.15700000  0.79540000  1
  O  O3  1  0.65700000  0.20460000  0.36160000  1
  O  O3  1  0.79540000  0.15700000  0.45240000  1
  O  O3  1  0.36160000  0.20460000  0.65700000  1
  O  O3  1  0.84300000  0.63840000  0.29540000  1
  O  O3  1  0.79540000  0.45240000  0.15700000  1
  O  O3  1  0.36160000  0.65700000  0.20460000  1
  O  O3  1  0.84300000  0.29540000  0.63840000  1
  O  O3  1  0.70460000  0.34300000  0.54760000  1
  O  O3  1  0.54760000  0.70460000  0.34300000  1
  O  O3  1  0.34300000  0.54760000  0.70460000  1
  O  O3  1  0.20460000  0.36160000  0.65700000  1
  O  O3  1  0.63840000  0.84300000  0.29540000  1
  O  O3  1  0.15700000  0.79540000  0.45240000  1
  O  O3  1  0.29540000  0.84300000  0.63840000  1
  O  O3  1  0.45240000  0.79540000  0.15700000  1
  O  O3  1  0.65700000  0.36160000  0.20460000  1
  O  O3  1  0.70460000  0.54760000  0.34300000  1
  O  O3  1  0.54760000  0.34300000  0.70460000  1
  O  O3  1  0.34300000  0.70460000  0.54760000  1
  O  O3  1  0.20460000  0.65700000  0.36160000  1
  O  O3  1  0.63840000  0.29540000  0.84300000  1
  O  O3  1  0.15700000  0.45240000  0.79540000  1
  O  O4  1  0.14950000  0.50000000  0.64950000  1
  O  O4  1  0.50000000  0.35050000  0.85050000  1
  O  O4  1  0.64950000  0.14950000  0.50000000  1
  O  O4  1  0.85050000  0.35050000  0.50000000  1
  O  O4  1  0.50000000  0.14950000  0.64950000  1
  O  O4  1  0.64950000  0.50000000  0.14950000  1
  O  O4  1  0.85050000  0.50000000  0.35050000  1
  O  O4  1  0.50000000  0.64950000  0.14950000  1
  O  O4  1  0.50000000  0.85050000  0.35050000  1
  O  O4  1  0.35050000  0.50000000  0.85050000  1
  O  O4  1  0.35050000  0.85050000  0.50000000  1
  O  O4  1  0.14950000  0.64950000  0.50000000  1
  Si  T1  1  0.27020000  0.59940000  0.72160000  1
  Si  T1  1  0.54860000  0.27840000  0.87780000  1
  Si  T1  1  0.67080000  0.12220000  0.40060000  1
  Si  T1  1  0.87780000  0.27840000  0.54860000  1
  Si  T1  1  0.40060000  0.12220000  0.67080000  1
  Si  T1  1  0.72160000  0.59940000  0.27020000  1
  Si  T1  1  0.87780000  0.54860000  0.27840000  1
  Si  T1  1  0.40060000  0.67080000  0.12220000  1
  Si  T1  1  0.72160000  0.27020000  0.59940000  1
  Si  T1  1  0.72980000  0.32920000  0.45140000  1
  Si  T1  1  0.45140000  0.72980000  0.32920000  1
  Si  T1  1  0.32920000  0.45140000  0.72980000  1
  Si  T1  1  0.12220000  0.40060000  0.67080000  1
  Si  T1  1  0.59940000  0.72160000  0.27020000  1
  Si  T1  1  0.27840000  0.87780000  0.54860000  1
  Si  T1  1  0.27020000  0.72160000  0.59940000  1
  Si  T1  1  0.54860000  0.87780000  0.27840000  1
  Si  T1  1  0.67080000  0.40060000  0.12220000  1
  Si  T1  1  0.72980000  0.45140000  0.32920000  1
  Si  T1  1  0.45140000  0.32920000  0.72980000  1
  Si  T1  1  0.32920000  0.72980000  0.45140000  1
  Si  T1  1  0.12220000  0.67080000  0.40060000  1
  Si  T1  1  0.59940000  0.27020000  0.72160000  1
  Si  T1  1  0.27840000  0.54860000  0.87780000  1
