# generated using pymatgen
data_Gd2CuH20C32(N2O17)2
_symmetry_space_group_name_H-M   'P 1'
_cell_length_a   10.46420000
_cell_length_b   10.60720000
_cell_length_c   11.35320000
_cell_angle_alpha   83.08300000
_cell_angle_beta   74.54300000
_cell_angle_gamma   69.67300000
_symmetry_Int_Tables_number   1
_chemical_formula_structural   Gd2CuH20C32(N2O17)2
_chemical_formula_sum   'Gd2 Cu1 H20 C32 N4 O34'
_cell_volume   1138.40088253
_cell_formula_units_Z   1
loop_
 _symmetry_equiv_pos_site_id
 _symmetry_equiv_pos_as_xyz
  1  'x, y, z'
loop_
 _atom_site_type_symbol
 _atom_site_label
 _atom_site_symmetry_multiplicity
 _atom_site_fract_x
 _atom_site_fract_y
 _atom_site_fract_z
 _atom_site_occupancy
  Gd  Gd0  1  0.58787016  0.59859285  0.62985514  1
  Gd  Gd1  1  0.41212984  0.40140715  0.37014486  1
  Cu  Cu2  1  0.00000000  0.50000000  0.50000000  1
  O  O3  1  0.39673000  0.61887000  0.40443000  1
  O  O4  1  0.60327000  0.38113000  0.59557000  1
  O  O5  1  0.47253000  0.74497000  0.49233000  1
  O  O6  1  0.52747000  0.25503000  0.50767000  1
  O  O7  1  0.27693000  0.25063000  0.44543000  1
  O  O8  1  0.72307000  0.74937000  0.55457000  1
  O  O9  1  0.04663000  0.31963000  0.45423000  1
  O  O10  1  0.95337000  0.68037000  0.54577000  1
  O  O11  1  0.87894000  0.06014000  0.25766000  1
  O  O12  1  0.12106000  0.93986000  0.74234000  1
  O  O13  1  0.95185000  0.84856000  0.27365000  1
  O  O14  1  0.04815000  0.15144000  0.72635000  1
  O  O15  1  0.00463000  0.44007000  0.66902000  1
  O  O16  1  0.00000000  0.55993000  0.33098000  1
  O  O17  1  0.77413000  0.49446000  0.71943000  1
  O  O18  1  0.22587000  0.50554000  0.28057000  1
  O  O19  1  0.53203000  0.47566000  0.16383000  1
  O  O20  1  0.46797000  0.52434000  0.83617000  1
  O  O21  1  0.65953000  0.38827000  0.29712000  1
  O  O22  1  0.34047000  0.61173000  0.70288000  1
  O  O23  1  0.17504000  0.25105000  0.15633000  1
  O  O24  1  0.82496000  0.74895000  0.84367000  1
  O  O25  1  0.27074000  0.23223000  0.96524000  1
  O  O26  1  0.72926000  0.76777000  0.03476000  1
  N  N31  1  0.96176000  0.95616000  0.28314000  1
  N  N32  1  0.03824000  0.04384000  0.71686000  1
  N  N33  1  0.16814000  0.26236000  0.05044000  1
  N  N34  1  0.83186000  0.73764000  0.94956000  1
  C  C35  1  0.28204000  0.85346000  0.40413000  1
  C  C36  1  0.71796000  0.14654000  0.59587000  1
  C  C37  1  0.28014000  0.97996000  0.43113000  1
  C  C38  1  0.71986000  0.02004000  0.56887000  1
  H  H39  1  0.35090000  0.98610000  0.46280000  1
  H  H40  1  0.64910000  0.01390000  0.53720000  1
  C  C41  1  0.17404000  0.09543000  0.41073000  1
  C  C42  1  0.82596000  0.90457000  0.58927000  1
  C  C43  1  0.06714000  0.08724000  0.36344000  1
  C  C44  1  0.93286000  0.91276000  0.63656000  1
  H  H45  1  0.99320000  0.16370000  0.35220000  1
  H  H46  1  0.00680000  0.83630000  0.64780000  1
  C  C47  1  0.07424000  0.96216000  0.33384000  1
  C  C48  1  0.92576000  0.03784000  0.66616000  1
  C  C49  1  0.17834000  0.84526000  0.35314000  1
  C  C50  1  0.82166000  0.15474000  0.64686000  1
  H  H51  1  0.17930000  0.76270000  0.33250000  1
  H  H52  1  0.82070000  0.23730000  0.66750000  1
  C  C53  1  0.39244000  0.72946000  0.43493000  1
  C  C54  1  0.60756000  0.27054000  0.56507000  1
  C  C55  1  0.16854000  0.23194000  0.43893000  1
  C  C56  1  0.83146000  0.76806000  0.56107000  1
  C  C57  1  0.89624000  0.41586000  0.87563000  1
  C  C58  1  0.10376000  0.58414000  0.12437000  1
  C  C59  1  0.77344000  0.44156000  0.96823000  1
  C  C60  1  0.22656000  0.55844000  0.03177000  1
  H  H61  1  0.68670000  0.48180000  0.94930000  1
  H  H62  1  0.31330000  0.51820000  0.05070000  1
  C  C63  1  0.78034000  0.40706000  0.08883000  1
  C  C64  1  0.21966000  0.59294000  0.91117000  1
  C  C65  1  0.91004000  0.34846000  0.11673000  1
  C  C66  1  0.08996000  0.65154000  0.88327000  1
  H  H67  1  0.91580000  0.32610000  0.19730000  1
  H  H68  1  0.08420000  0.67390000  0.80270000  1
  C  C69  1  0.03084000  0.32366000  0.02274000  1
  C  C70  1  0.96916000  0.67634000  0.97726000  1
  C  C71  1  0.02494000  0.35636000  0.90233000  1
  C  C72  1  0.97506000  0.64364000  0.09767000  1
  H  H73  1  0.10680000  0.33840000  0.84020000  1
  H  H74  1  0.89320000  0.66160000  0.15980000  1
  C  C75  1  0.88934000  0.45376000  0.74553000  1
  C  C76  1  0.11066000  0.54624000  0.25447000  1
  C  C77  1  0.64714000  0.42726000  0.18873000  1
  C  C78  1  0.35286000  0.57274000  0.81127000  1
