# generated using pymatgen
data_SiO2
_symmetry_space_group_name_H-M   'P 1'
_cell_length_a   10.39800000
_cell_length_b   11.40072373
_cell_length_c   11.40072373
_cell_angle_alpha   77.99731096
_cell_angle_beta   62.86918097
_cell_angle_gamma   62.86918097
_symmetry_Int_Tables_number   1
_chemical_formula_structural   SiO2
_chemical_formula_sum   'Si16 O32'
_cell_volume   1070.44187140
_cell_formula_units_Z   16
loop_
 _symmetry_equiv_pos_site_id
 _symmetry_equiv_pos_as_xyz
  1  'x, y, z'
loop_
 _atom_site_type_symbol
 _atom_site_label
 _atom_site_symmetry_multiplicity
 _atom_site_fract_x
 _atom_site_fract_y
 _atom_site_fract_z
 _atom_site_occupancy
  O  O3  1  0.24180000  0.75820000  0.75820000  1
  O  O3  1  0.00000000  0.75820000  0.24180000  1
  O  O3  1  0.75820000  0.24180000  0.24180000  1
  O  O3  1  0.00000000  0.24180000  0.75820000  1
  O  O4  1  0.16900000  0.66200000  0.00000000  1
  O  O4  1  0.83100000  0.00000000  0.33800000  1
  O  O4  1  0.83100000  0.33800000  0.00000000  1
  O  O4  1  0.16900000  0.00000000  0.66200000  1
  O  O5  1  0.71350000  0.62550000  0.37450000  1
  O  O5  1  0.33900000  0.37450000  0.37450000  1
  O  O5  1  0.71350000  0.37450000  0.62550000  1
  O  O5  1  0.08800000  0.62550000  0.62550000  1
  O  O5  1  0.28650000  0.37450000  0.62550000  1
  O  O5  1  0.66100000  0.62550000  0.62550000  1
  O  O5  1  0.28650000  0.62550000  0.37450000  1
  O  O5  1  0.91200000  0.37450000  0.37450000  1
  O  O6  1  0.45380000  0.81100000  0.53680000  1
  O  O6  1  0.26480000  0.53680000  0.18900000  1
  O  O6  1  0.80160000  0.18900000  0.46320000  1
  O  O6  1  0.99060000  0.46320000  0.81100000  1
  O  O6  1  0.80160000  0.46320000  0.18900000  1
  O  O6  1  0.99060000  0.81100000  0.46320000  1
  O  O6  1  0.45380000  0.53680000  0.81100000  1
  O  O6  1  0.26480000  0.18900000  0.53680000  1
  O  O6  1  0.54620000  0.18900000  0.46320000  1
  O  O6  1  0.73520000  0.46320000  0.81100000  1
  O  O6  1  0.19840000  0.81100000  0.53680000  1
  O  O6  1  0.00940000  0.53680000  0.18900000  1
  O  O6  1  0.19840000  0.53680000  0.81100000  1
  O  O6  1  0.00940000  0.18900000  0.53680000  1
  O  O6  1  0.54620000  0.46320000  0.18900000  1
  O  O6  1  0.73520000  0.81100000  0.46320000  1
  Si  T1  1  0.26620000  0.84450000  0.62310000  1
  Si  T1  1  0.11070000  0.62310000  0.15550000  1
  Si  T1  1  0.73380000  0.15550000  0.37690000  1
  Si  T1  1  0.88930000  0.37690000  0.84450000  1
  Si  T1  1  0.73380000  0.37690000  0.15550000  1
  Si  T1  1  0.88930000  0.84450000  0.37690000  1
  Si  T1  1  0.26620000  0.62310000  0.84450000  1
  Si  T1  1  0.11070000  0.15550000  0.62310000  1
  Si  T2  1  0.85900000  0.50000000  0.28200000  1
  Si  T2  1  0.35900000  0.28200000  0.50000000  1
  Si  T2  1  0.64100000  0.50000000  0.71800000  1
  Si  T2  1  0.14100000  0.71800000  0.50000000  1
  Si  T2  1  0.64100000  0.71800000  0.50000000  1
  Si  T2  1  0.14100000  0.50000000  0.71800000  1
  Si  T2  1  0.85900000  0.28200000  0.50000000  1
  Si  T2  1  0.35900000  0.50000000  0.28200000  1
