# generated using pymatgen
data_Ti3H24(C3O)14
_symmetry_space_group_name_H-M   'P 1'
_cell_length_a   25.83661600
_cell_length_b   25.83661600
_cell_length_c   13.66759000
_cell_angle_alpha   90.00000000
_cell_angle_beta   90.00000000
_cell_angle_gamma   120.00000000
_symmetry_Int_Tables_number   1
_chemical_formula_structural   Ti3H24(C3O)14
_chemical_formula_sum   'Ti9 H72 C126 O42'
_cell_volume   7901.21419074
_cell_formula_units_Z   3
loop_
 _symmetry_equiv_pos_site_id
 _symmetry_equiv_pos_as_xyz
  1  'x, y, z'
loop_
 _atom_site_type_symbol
 _atom_site_label
 _atom_site_symmetry_multiplicity
 _atom_site_fract_x
 _atom_site_fract_y
 _atom_site_fract_z
 _atom_site_occupancy
  Ti  Ti0  1  0.00003000  0.00000000  0.21775900  1
  Ti  Ti1  1  0.00000000  0.00003000  0.78224100  1
  Ti  Ti2  1  0.66669667  0.33330333  0.55109233  1
  Ti  Ti3  1  0.66663667  0.33336333  0.11557433  1
  Ti  Ti4  1  0.33336333  0.66663667  0.88442567  1
  Ti  Ti5  1  0.33330333  0.66669667  0.44890767  1
  Ti  Ti6  1  0.00003000  0.00000000  0.49997000  1
  Ti  Ti7  1  0.66669667  0.33330333  0.83330333  1
  Ti  Ti8  1  0.33336333  0.66663667  0.16663667  1
  O  O9  1  0.04255120  0.08512000  0.24135000  1
  O  O10  1  0.91488000  0.95743120  0.24135000  1
  O  O11  1  0.04256880  0.95744880  0.24135000  1
  O  O12  1  0.08512000  0.04255120  0.75865000  1
  O  O13  1  0.95743120  0.91488000  0.75865000  1
  O  O14  1  0.95744880  0.04256880  0.75865000  1
  O  O15  1  0.70921787  0.41845333  0.57468333  1
  O  O16  1  0.58154667  0.29076453  0.57468333  1
  O  O17  1  0.70923547  0.29078213  0.57468333  1
  O  O18  1  0.75178667  0.37588453  0.09198333  1
  O  O19  1  0.62409787  0.24821333  0.09198333  1
  O  O20  1  0.62411547  0.37590213  0.09198333  1
  O  O21  1  0.37588453  0.75178667  0.90801667  1
  O  O22  1  0.24821333  0.62409787  0.90801667  1
  O  O23  1  0.37590213  0.62411547  0.90801667  1
  O  O24  1  0.41845333  0.70921787  0.42531667  1
  O  O25  1  0.29076453  0.58154667  0.42531667  1
  O  O26  1  0.29078213  0.70923547  0.42531667  1
  O  O27  1  0.04113150  0.08233000  0.39976000  1
  O  O28  1  0.91767000  0.95880150  0.39976000  1
  O  O29  1  0.04119850  0.95886850  0.39976000  1
  O  O30  1  0.08233000  0.04113150  0.60024000  1
  O  O31  1  0.95880150  0.91767000  0.60024000  1
  O  O32  1  0.95886850  0.04119850  0.60024000  1
  O  O33  1  0.70779817  0.41566333  0.73309333  1
  O  O34  1  0.58433667  0.29213483  0.73309333  1
  O  O35  1  0.70786517  0.29220183  0.73309333  1
  O  O36  1  0.74899667  0.37446483  0.93357333  1
  O  O37  1  0.62546817  0.25100333  0.93357333  1
  O  O38  1  0.62553517  0.37453183  0.93357333  1
  O  O39  1  0.37446483  0.74899667  0.06642667  1
  O  O40  1  0.25100333  0.62546817  0.06642667  1
  O  O41  1  0.37453183  0.62553517  0.06642667  1
  O  O42  1  0.41566333  0.70779817  0.26690667  1
  O  O43  1  0.29213483  0.58433667  0.26690667  1
  O  O44  1  0.29220183  0.70786517  0.26690667  1
  C  C45  1  0.05467180  0.10944000  0.32407000  1
  C  C46  1  0.89056000  0.94523180  0.32407000  1
  C  C47  1  0.05476820  0.94532820  0.32407000  1
  C  C48  1  0.10944000  0.05467180  0.67593000  1
  C  C49  1  0.94523180  0.89056000  0.67593000  1
  C  C50  1  0.94532820  0.05476820  0.67593000  1
  C  C51  1  0.72133847  0.44277333  0.65740333  1
  C  C52  1  0.55722667  0.27856513  0.65740333  1
  C  C53  1  0.72143487  0.27866153  0.65740333  1
  C  C54  1  0.77610667  0.38800513  0.00926333  1
  C  C55  1  0.61189847  0.22389333  0.00926333  1
  C  C56  1  0.61199487  0.38810153  0.00926333  1
  C  C57  1  0.38800513  0.77610667  0.99073667  1
  C  C58  1  0.22389333  0.61189847  0.99073667  1
  C  C59  1  0.38810153  0.61199487  0.99073667  1
  C  C60  1  0.44277333  0.72133847  0.34259667  1
  C  C61  1  0.27856513  0.55722667  0.34259667  1
  C  C62  1  0.27866153  0.72143487  0.34259667  1
  C  C63  1  0.08782170  0.17573000  0.32477000  1
  C  C64  1  0.82427000  0.91209170  0.32477000  1
  C  C65  1  0.08790830  0.91217830  0.32477000  1
  C  C66  1  0.17573000  0.08782170  0.67523000  1
  C  C67  1  0.91209170  0.82427000  0.67523000  1
  C  C68  1  0.91217830  0.08790830  0.67523000  1
  C  C69  1  0.75448837  0.50906333  0.65810333  1
  C  C70  1  0.49093667  0.24542503  0.65810333  1
  C  C71  1  0.75457497  0.24551163  0.65810333  1
  C  C72  1  0.84239667  0.42115503  0.00856333  1
  C  C73  1  0.57875837  0.15760333  0.00856333  1
  C  C74  1  0.57884497  0.42124163  0.00856333  1
  C  C75  1  0.42115503  0.84239667  0.99143667  1
  C  C76  1  0.15760333  0.57875837  0.99143667  1
  C  C77  1  0.42124163  0.57884497  0.99143667  1
  C  C78  1  0.50906333  0.75448837  0.34189667  1
  C  C79  1  0.24542503  0.49093667  0.34189667  1
  C  C80  1  0.24551163  0.75457497  0.34189667  1
  C  C81  1  0.14982000  0.29984000  0.33188000  1
  C  C82  1  0.70016000  0.84998000  0.33188000  1
  C  C83  1  0.15002000  0.85018000  0.33188000  1
  C  C84  1  0.29984000  0.14982000  0.66812000  1
  C  C85  1  0.84998000  0.70016000  0.66812000  1
  C  C86  1  0.85018000  0.15002000  0.66812000  1
  C  C87  1  0.81648667  0.63317333  0.66521333  1
  C  C88  1  0.36682667  0.18331333  0.66521333  1
  C  C89  1  0.81668667  0.18351333  0.66521333  1
  C  C90  1  0.96650667  0.48315333  0.00145333  1
  C  C91  1  0.51664667  0.03349333  0.00145333  1
  C  C92  1  0.51684667  0.48335333  0.00145333  1
  C  C93  1  0.48315333  0.96650667  0.00000000  1
  C  C94  1  0.03349333  0.51664667  0.00000000  1
  C  C95  1  0.48335333  0.51684667  0.00000000  1
  C  C96  1  0.63317333  0.81648667  0.33478667  1
  C  C97  1  0.18331333  0.36682667  0.33478667  1
  C  C98  1  0.18351333  0.81668667  0.33478667  1
  C  C99  1  0.13412000  0.26824000  0.24588000  1
  C  C100  1  0.73176000  0.86588000  0.24588000  1
  C  C101  1  0.13412000  0.86588000  0.24588000  1
  C  C102  1  0.26824000  0.13412000  0.75412000  1
  C  C103  1  0.86588000  0.73176000  0.75412000  1
  C  C104  1  0.86588000  0.13412000  0.75412000  1
  C  C105  1  0.80078667  0.60157333  0.57921333  1
  C  C106  1  0.39842667  0.19921333  0.57921333  1
  C  C107  1  0.80078667  0.19921333  0.57921333  1
  C  C108  1  0.93490667  0.46745333  0.08745333  1
  C  C109  1  0.53254667  0.06509333  0.08745333  1
  C  C110  1  0.53254667  0.46745333  0.08745333  1
  C  C111  1  0.46745333  0.93490667  0.91254667  1
  C  C112  1  0.06509333  0.53254667  0.91254667  1
  C  C113  1  0.46745333  0.53254667  0.91254667  1
  C  C114  1  0.60157333  0.80078667  0.42078667  1
  C  C115  1  0.19921333  0.39842667  0.42078667  1
  C  C116  1  0.19921333  0.80078667  0.42078667  1
  H  H117  1  0.14443000  0.28897000  0.18677000  1
  H  H118  1  0.71103000  0.85546000  0.18677000  1
  H  H119  1  0.14454000  0.85557000  0.18677000  1
  H  H120  1  0.28897000  0.14443000  0.81323000  1
  H  H121  1  0.85546000  0.71103000  0.81323000  1
  H  H122  1  0.85557000  0.14454000  0.81323000  1
  H  H123  1  0.81109667  0.62230333  0.52010333  1
  H  H124  1  0.37769667  0.18879333  0.52010333  1
  H  H125  1  0.81120667  0.18890333  0.52010333  1
  H  H126  1  0.95563667  0.47776333  0.14656333  1
  H  H127  1  0.52212667  0.04436333  0.14656333  1
  H  H128  1  0.52223667  0.47787333  0.14656333  1
  H  H129  1  0.47776333  0.95563667  0.85343667  1
  H  H130  1  0.04436333  0.52212667  0.85343667  1
  H  H131  1  0.47787333  0.52223667  0.85343667  1
  H  H132  1  0.62230333  0.81109667  0.47989667  1
  H  H133  1  0.18879333  0.37769667  0.47989667  1
  H  H134  1  0.18890333  0.81120667  0.47989667  1
  C  C135  1  0.10469190  0.20944000  0.24458000  1
  C  C136  1  0.79056000  0.89525190  0.24458000  1
  C  C137  1  0.10474810  0.89530810  0.24458000  1
  C  C138  1  0.20944000  0.10469190  0.75542000  1
  C  C139  1  0.89525190  0.79056000  0.75542000  1
  C  C140  1  0.89530810  0.10474810  0.75542000  1
  C  C141  1  0.77135857  0.54277333  0.57791333  1
  C  C142  1  0.45722667  0.22858523  0.57791333  1
  C  C143  1  0.77141477  0.22864143  0.57791333  1
  C  C144  1  0.87610667  0.43802523  0.08875333  1
  C  C145  1  0.56191857  0.12389333  0.08875333  1
  C  C146  1  0.56197477  0.43808143  0.08875333  1
  C  C147  1  0.43802523  0.87610667  0.91124667  1
  C  C148  1  0.12389333  0.56191857  0.91124667  1
  C  C149  1  0.43808143  0.56197477  0.91124667  1
  C  C150  1  0.54277333  0.77135857  0.42208667  1
  C  C151  1  0.22858523  0.45722667  0.42208667  1
  C  C152  1  0.22864143  0.77141477  0.42208667  1
  H  H153  1  0.09513000  0.19027000  0.18397000  1
  H  H154  1  0.80973000  0.90486000  0.18397000  1
  H  H155  1  0.09514000  0.90487000  0.18397000  1
  H  H156  1  0.19027000  0.09513000  0.81603000  1
  H  H157  1  0.90486000  0.80973000  0.81603000  1
  H  H158  1  0.90487000  0.09514000  0.81603000  1
  H  H159  1  0.76179667  0.52360333  0.51730333  1
  H  H160  1  0.47639667  0.23819333  0.51730333  1
  H  H161  1  0.76180667  0.23820333  0.51730333  1
  H  H162  1  0.85693667  0.42846333  0.14936333  1
  H  H163  1  0.57152667  0.14306333  0.14936333  1
  H  H164  1  0.57153667  0.42847333  0.14936333  1
  H  H165  1  0.42846333  0.85693667  0.85063667  1
  H  H166  1  0.14306333  0.57152667  0.85063667  1
  H  H167  1  0.42847333  0.57153667  0.85063667  1
  H  H168  1  0.52360333  0.76179667  0.48269667  1
  H  H169  1  0.23819333  0.47639667  0.48269667  1
  H  H170  1  0.23820333  0.76180667  0.48269667  1
  C  C177  1  0.10332000  0.20665000  0.41041000  1
  C  C178  1  0.79335000  0.89667000  0.41041000  1
  C  C179  1  0.10333000  0.89668000  0.41041000  1
  C  C180  1  0.20665000  0.10332000  0.58959000  1
  C  C181  1  0.89667000  0.79335000  0.58959000  1
  C  C182  1  0.89668000  0.10333000  0.58959000  1
  C  C183  1  0.76998667  0.53998333  0.74374333  1
  C  C184  1  0.46001667  0.23000333  0.74374333  1
  C  C185  1  0.76999667  0.23001333  0.74374333  1
  C  C186  1  0.87331667  0.43665333  0.92292333  1
  C  C187  1  0.56333667  0.12668333  0.92292333  1
  C  C188  1  0.56334667  0.43666333  0.92292333  1
  C  C189  1  0.43665333  0.87331667  0.07707667  1
  C  C190  1  0.12668333  0.56333667  0.07707667  1
  C  C191  1  0.43666333  0.56334667  0.07707667  1
  C  C192  1  0.53998333  0.76998667  0.25625667  1
  C  C193  1  0.23000333  0.46001667  0.25625667  1
  C  C194  1  0.23001333  0.76999667  0.25625667  1
  H  H195  1  0.09283000  0.18567000  0.46917000  1
  H  H196  1  0.81433000  0.90716000  0.46917000  1
  H  H197  1  0.09284000  0.90717000  0.46917000  1
  H  H198  1  0.18567000  0.09283000  0.53083000  1
  H  H199  1  0.90716000  0.81433000  0.53083000  1
  H  H200  1  0.90717000  0.09284000  0.53083000  1
  H  H201  1  0.75949667  0.51900333  0.80250333  1
  H  H202  1  0.48099667  0.24049333  0.80250333  1
  H  H203  1  0.75950667  0.24050333  0.80250333  1
  H  H204  1  0.85233667  0.42616333  0.86416333  1
  H  H205  1  0.57382667  0.14766333  0.86416333  1
  H  H206  1  0.57383667  0.42617333  0.86416333  1
  H  H207  1  0.42616333  0.85233667  0.13583667  1
  H  H208  1  0.14766333  0.57382667  0.13583667  1
  H  H209  1  0.42617333  0.57383667  0.13583667  1
  H  H210  1  0.51900333  0.75949667  0.19749667  1
  H  H211  1  0.24049333  0.48099667  0.19749667  1
  H  H212  1  0.24050333  0.75950667  0.19749667  1
  C  C213  1  0.13242000  0.26495000  0.41231000  1
  C  C214  1  0.73505000  0.86747000  0.41231000  1
  C  C215  1  0.13253000  0.86758000  0.41231000  1
  C  C216  1  0.26495000  0.13242000  0.58769000  1
  C  C217  1  0.86747000  0.73505000  0.58769000  1
  C  C218  1  0.86758000  0.13253000  0.58769000  1
  C  C219  1  0.79908667  0.59828333  0.74564333  1
  C  C220  1  0.40171667  0.20080333  0.74564333  1
  C  C221  1  0.79919667  0.20091333  0.74564333  1
  C  C222  1  0.93161667  0.46575333  0.92102333  1
  C  C223  1  0.53413667  0.06838333  0.92102333  1
  C  C224  1  0.53424667  0.46586333  0.92102333  1
  C  C225  1  0.46575333  0.93161667  0.07897667  1
  C  C226  1  0.06838333  0.53413667  0.07897667  1
  C  C227  1  0.46586333  0.53424667  0.07897667  1
  C  C228  1  0.59828333  0.79908667  0.25435667  1
  C  C229  1  0.20080333  0.40171667  0.25435667  1
  C  C230  1  0.20091333  0.79919667  0.25435667  1
  H  H231  1  0.14173000  0.28357000  0.47307000  1
  H  H232  1  0.71643000  0.85816000  0.47307000  1
  H  H233  1  0.14184000  0.85827000  0.47307000  1
  H  H234  1  0.28357000  0.14173000  0.52693000  1
  H  H235  1  0.85816000  0.71643000  0.52693000  1
  H  H236  1  0.85827000  0.14184000  0.52693000  1
  H  H237  1  0.80839667  0.61690333  0.80640333  1
  H  H238  1  0.38309667  0.19149333  0.80640333  1
  H  H239  1  0.80850667  0.19160333  0.80640333  1
  H  H240  1  0.95023667  0.47506333  0.86026333  1
  H  H241  1  0.52482667  0.04976333  0.86026333  1
  H  H242  1  0.52493667  0.47517333  0.86026333  1
  H  H243  1  0.47506333  0.95023667  0.13973667  1
  H  H244  1  0.04976333  0.52482667  0.13973667  1
  H  H245  1  0.47517333  0.52493667  0.13973667  1
  H  H246  1  0.61690333  0.80839667  0.19359667  1
  H  H247  1  0.19149333  0.38309667  0.19359667  1
  H  H248  1  0.19160333  0.80850667  0.19359667  1
