# generated using pymatgen
data_PuP2H4CO7
_symmetry_space_group_name_H-M   'P 1'
_cell_length_a   8.66925000
_cell_length_b   8.70125000
_cell_length_c   9.53186000
_cell_angle_alpha   71.40340000
_cell_angle_beta   72.24830000
_cell_angle_gamma   82.85940000
_symmetry_Int_Tables_number   1
_chemical_formula_structural   PuP2H4CO7
_chemical_formula_sum   'Pu4 P8 H16 C4 O28'
_cell_volume   648.73846370
_cell_formula_units_Z   4
loop_
 _symmetry_equiv_pos_site_id
 _symmetry_equiv_pos_as_xyz
  1  'x, y, z'
loop_
 _atom_site_type_symbol
 _atom_site_label
 _atom_site_symmetry_multiplicity
 _atom_site_fract_x
 _atom_site_fract_y
 _atom_site_fract_z
 _atom_site_occupancy
  Pu  Pu0  1  0.30347714  0.04272914  0.78878987  1
  Pu  Pu1  1  0.69652286  0.95727086  0.21121013  1
  Pu  Pu2  1  0.81950814  0.56786314  0.78117687  1
  Pu  Pu3  1  0.18049186  0.43213686  0.21882313  1
  P  P4  1  0.47834100  0.72881100  0.60923900  1
  P  P5  1  0.52165900  0.27118900  0.39076100  1
  P  P6  1  0.27593100  0.02653100  0.18683900  1
  P  P7  1  0.72406900  0.97346900  0.81316100  1
  P  P8  1  0.02113100  0.77076100  0.37308900  1
  P  P9  1  0.97886900  0.22923900  0.62691100  1
  P  P10  1  0.22583100  0.46031100  0.82852900  1
  P  P11  1  0.77416900  0.53968900  0.17147100  1
  O  O12  1  0.07883000  0.66943000  0.26107000  1
  O  O13  1  0.92117000  0.33057000  0.73893000  1
  O  O14  1  0.61003000  0.67483000  0.69207000  1
  O  O15  1  0.38997000  0.32517000  0.30793000  1
  O  O16  1  0.45253000  0.04173000  0.17767000  1
  O  O17  1  0.54747000  0.95827000  0.82233000  1
  O  O18  1  0.06093000  0.54553000  0.83037000  1
  O  O19  1  0.93907000  0.45447000  0.16963000  1
  O  O20  1  0.26443000  0.97063000  0.05407000  1
  O  O21  1  0.73557000  0.02937000  0.94593000  1
  O  O22  1  0.95943000  0.66383000  0.53877000  1
  O  O23  1  0.04057000  0.33617000  0.46123000  1
  O  O24  1  0.89453000  0.89813000  0.32607000  1
  O  O25  1  0.10547000  0.10187000  0.67393000  1
  O  O26  1  0.17643000  0.18323000  0.19417000  1
  O  O27  1  0.82357000  0.81677000  0.80583000  1
  O  O28  1  0.22523000  0.28163000  0.83837000  1
  O  O29  1  0.77477000  0.71837000  0.16163000  1
  O  O32  1  0.28723000  0.47773000  0.95837000  1
  O  O33  1  0.71277000  0.52227000  0.04163000  1
  O  O34  1  0.55063000  0.79023000  0.43407000  1
  O  O35  1  0.44937000  0.20977000  0.56593000  1
  C  C38  1  0.19354000  0.87174000  0.36446000  1
  C  C39  1  0.80646000  0.12826000  0.63554000  1
  H  H40  1  0.28020000  0.78900000  0.38340000  1
  H  H41  1  0.71980000  0.21100000  0.61660000  1
  H  H42  1  0.16260000  0.92150000  0.44960000  1
  H  H43  1  0.83740000  0.07850000  0.55040000  1
  O  O44  1  0.36003000  0.85273000  0.66917000  1
  O  O45  1  0.63997000  0.14727000  0.33083000  1
  C  C46  1  0.36834000  0.54994000  0.64576000  1
  C  C47  1  0.63166000  0.45006000  0.35424000  1
  H  H48  1  0.30890000  0.57560000  0.56690000  1
  H  H49  1  0.69110000  0.42440000  0.43310000  1
  H  H50  1  0.45030000  0.46410000  0.62470000  1
  H  H51  1  0.54970000  0.53590000  0.37530000  1
