# generated using pymatgen
data_PuP2H6CO8
_symmetry_space_group_name_H-M   'P 1'
_cell_length_a   5.25042000
_cell_length_b   8.28963000
_cell_length_c   16.46297000
_cell_angle_alpha   90.00000000
_cell_angle_beta   93.91201000
_cell_angle_gamma   90.00000000
_symmetry_Int_Tables_number   1
_chemical_formula_structural   PuP2H6CO8
_chemical_formula_sum   'Pu4 P8 H24 C4 O32'
_cell_volume   714.86542425
_cell_formula_units_Z   4
loop_
 _symmetry_equiv_pos_site_id
 _symmetry_equiv_pos_as_xyz
  1  'x, y, z'
loop_
 _atom_site_type_symbol
 _atom_site_label
 _atom_site_symmetry_multiplicity
 _atom_site_fract_x
 _atom_site_fract_y
 _atom_site_fract_z
 _atom_site_occupancy
  Pu  Pu0  1  0.35179200  0.34290516  0.13277180  1
  Pu  Pu1  1  0.14820800  0.84290516  0.36722820  1
  Pu  Pu2  1  0.64820800  0.65709484  0.86722820  1
  Pu  Pu3  1  0.85179200  0.15709484  0.63277180  1
  P  P4  1  0.62352180  0.67895120  0.24333600  1
  P  P5  1  0.87647820  0.17895120  0.25666400  1
  P  P6  1  0.37647820  0.32104880  0.75666400  1
  P  P7  1  0.12352180  0.82104880  0.74333600  1
  P  P8  1  0.84315180  0.61076120  0.07891600  1
  P  P9  1  0.65684820  0.11076120  0.42108400  1
  P  P10  1  0.15684820  0.38923880  0.92108400  1
  P  P11  1  0.34315180  0.88923880  0.57891600  1
  O  O12  1  0.86375000  0.67633000  0.30051170  1
  O  O13  1  0.63625000  0.17633000  0.19948830  1
  O  O14  1  0.13625000  0.32367000  0.69948830  1
  O  O15  1  0.36375000  0.82367000  0.80051170  1
  O  O16  1  0.67425000  0.45943000  0.07524160  1
  O  O17  1  0.82575000  0.95943000  0.42475840  1
  O  O18  1  0.32575000  0.54057000  0.92475840  1
  O  O19  1  0.17425000  0.04057000  0.57524160  1
  O  O20  1  0.11485000  0.57323000  0.11183160  1
  O  O21  1  0.38515000  0.07323000  0.38816840  1
  O  O22  1  0.88515000  0.42677000  0.88816840  1
  O  O23  1  0.61485000  0.92677000  0.61183160  1
  O  O24  1  0.51225000  0.50943000  0.23256160  1
  O  O25  1  0.98775000  0.00943000  0.26743840  1
  O  O26  1  0.48775000  0.49057000  0.76743840  1
  O  O27  1  0.01225000  0.99057000  0.73256160  1
  O  O28  1  0.42575000  0.79563000  0.27423160  1
  O  O29  1  0.07425000  0.29563000  0.22576840  1
  O  O30  1  0.57425000  0.20437000  0.72576840  1
  O  O31  1  0.92575000  0.70437000  0.77423160  1
  O  O36  1  0.84075000  0.69213000  0.00000000  1
  O  O37  1  0.65925000  0.19213000  0.50435160  1
  O  O38  1  0.15925000  0.30787000  0.00435160  1
  O  O39  1  0.34075000  0.80787000  0.49564840  1
  C  C40  1  0.69897000  0.75114000  0.14482000  1
  C  C41  1  0.80103000  0.25114000  0.35518000  1
  C  C42  1  0.30103000  0.24886000  0.85518000  1
  C  C43  1  0.19897000  0.74886000  0.64482000  1
  H  H44  1  0.53920000  0.79110000  0.11620000  1
  H  H45  1  0.96080000  0.29110000  0.38380000  1
  H  H46  1  0.46080000  0.20890000  0.88380000  1
  H  H47  1  0.03920000  0.70890000  0.61620000  1
  H  H48  1  0.81500000  0.84460000  0.15300000  1
  H  H49  1  0.68500000  0.34460000  0.34700000  1
  H  H50  1  0.18500000  0.15540000  0.84700000  1
  H  H51  1  0.31500000  0.65540000  0.65300000  1
