# generated using pymatgen
data_Ag2H10C12N2O5
_symmetry_space_group_name_H-M   'P 1'
_cell_length_a   7.24996000
_cell_length_b   23.76251700
_cell_length_c   30.73520000
_cell_angle_alpha   90.00000000
_cell_angle_beta   90.00000000
_cell_angle_gamma   90.00000000
_symmetry_Int_Tables_number   1
_chemical_formula_structural   Ag2H10C12N2O5
_chemical_formula_sum   'Ag32 H160 C192 N32 O80'
_cell_volume   5294.97720178
_cell_formula_units_Z   16
loop_
 _symmetry_equiv_pos_site_id
 _symmetry_equiv_pos_as_xyz
  1  'x, y, z'
loop_
 _atom_site_type_symbol
 _atom_site_label
 _atom_site_symmetry_multiplicity
 _atom_site_fract_x
 _atom_site_fract_y
 _atom_site_fract_z
 _atom_site_occupancy
  Ag  Ag0  1  0.19513500  0.22995213  0.20936910  1
  Ag  Ag1  1  0.30486500  0.77004787  0.70936910  1
  Ag  Ag2  1  0.80486500  0.72995213  0.29063090  1
  Ag  Ag3  1  0.69513500  0.27004787  0.79063090  1
  Ag  Ag4  1  0.69513500  0.72995213  0.70936910  1
  Ag  Ag5  1  0.80486500  0.27004787  0.20936910  1
  Ag  Ag6  1  0.30486500  0.22995213  0.79063090  1
  Ag  Ag7  1  0.19513500  0.77004787  0.29063090  1
  Ag  Ag8  1  0.80486500  0.77004787  0.79063090  1
  Ag  Ag9  1  0.69513500  0.22995213  0.29063090  1
  Ag  Ag10  1  0.19513500  0.27004787  0.70936910  1
  Ag  Ag11  1  0.30486500  0.72995213  0.20936910  1
  Ag  Ag12  1  0.30486500  0.27004787  0.29063090  1
  Ag  Ag13  1  0.19513500  0.72995213  0.79063090  1
  Ag  Ag14  1  0.69513500  0.77004787  0.20936910  1
  Ag  Ag15  1  0.80486500  0.22995213  0.70936910  1
  Ag  Ag16  1  0.52526900  0.55768516  0.01597612  1
  Ag  Ag17  1  0.97473100  0.44231484  0.51597612  1
  Ag  Ag18  1  0.47473100  0.05768516  0.48402388  1
  Ag  Ag19  1  0.02526900  0.94231484  0.98402388  1
  Ag  Ag20  1  0.02526900  0.05768516  0.51597612  1
  Ag  Ag21  1  0.47473100  0.94231484  0.01597612  1
  Ag  Ag22  1  0.97473100  0.55768516  0.98402388  1
  Ag  Ag23  1  0.52526900  0.44231484  0.48402388  1
  Ag  Ag24  1  0.47473100  0.44231484  0.98402388  1
  Ag  Ag25  1  0.02526900  0.55768516  0.48402388  1
  Ag  Ag26  1  0.52526900  0.94231484  0.51597612  1
  Ag  Ag27  1  0.97473100  0.05768516  0.01597612  1
  Ag  Ag28  1  0.97473100  0.94231484  0.48402388  1
  Ag  Ag29  1  0.52526900  0.05768516  0.98402388  1
  Ag  Ag30  1  0.02526900  0.44231484  0.01597612  1
  Ag  Ag31  1  0.47473100  0.55768516  0.51597612  1
  O  O32  1  0.34245000  0.30419120  0.18611900  1
  O  O33  1  0.15755000  0.69580880  0.68611900  1
  O  O34  1  0.65755000  0.80419120  0.31388100  1
  O  O35  1  0.84245000  0.19580880  0.81388100  1
  O  O36  1  0.84245000  0.80419120  0.68611900  1
  O  O37  1  0.65755000  0.19580880  0.18611900  1
  O  O38  1  0.15755000  0.30419120  0.81388100  1
  O  O39  1  0.34245000  0.69580880  0.31388100  1
  O  O40  1  0.65755000  0.69580880  0.81388100  1
  O  O41  1  0.84245000  0.30419120  0.31388100  1
  O  O42  1  0.34245000  0.19580880  0.68611900  1
  O  O43  1  0.15755000  0.80419120  0.18611900  1
  O  O44  1  0.15755000  0.19580880  0.31388100  1
  O  O45  1  0.34245000  0.80419120  0.81388100  1
  O  O46  1  0.84245000  0.69580880  0.18611900  1
  O  O47  1  0.65755000  0.30419120  0.68611900  1
  O  O48  1  0.45174000  0.33230130  0.25026900  1
  O  O49  1  0.04826000  0.66769870  0.75026900  1
  O  O50  1  0.54826000  0.83230130  0.24973100  1
  O  O51  1  0.95174000  0.16769870  0.74973100  1
  O  O52  1  0.95174000  0.83230130  0.75026900  1
  O  O53  1  0.54826000  0.16769870  0.25026900  1
  O  O54  1  0.04826000  0.33230130  0.74973100  1
  O  O55  1  0.45174000  0.66769870  0.24973100  1
  O  O56  1  0.54826000  0.66769870  0.74973100  1
  O  O57  1  0.95174000  0.33230130  0.24973100  1
  O  O58  1  0.45174000  0.16769870  0.75026900  1
  O  O59  1  0.04826000  0.83230130  0.25026900  1
  O  O60  1  0.04826000  0.16769870  0.24973100  1
  O  O61  1  0.45174000  0.83230130  0.74973100  1
  O  O62  1  0.95174000  0.66769870  0.25026900  1
  O  O63  1  0.54826000  0.33230130  0.75026900  1
  O  O64  1  0.47615000  0.41200130  0.05353900  1
  O  O65  1  0.02385000  0.58799870  0.55353900  1
  O  O66  1  0.52385000  0.91200130  0.44646100  1
  O  O67  1  0.97615000  0.08799870  0.94646100  1
  O  O68  1  0.97615000  0.91200130  0.55353900  1
  O  O69  1  0.52385000  0.08799870  0.05353900  1
  O  O70  1  0.02385000  0.41200130  0.94646100  1
  O  O71  1  0.47615000  0.58799870  0.44646100  1
  O  O72  1  0.52385000  0.58799870  0.94646100  1
  O  O73  1  0.97615000  0.41200130  0.44646100  1
  O  O74  1  0.47615000  0.08799870  0.55353900  1
  O  O75  1  0.02385000  0.91200130  0.05353900  1
  O  O76  1  0.02385000  0.08799870  0.44646100  1
  O  O77  1  0.47615000  0.91200130  0.94646100  1
  O  O78  1  0.97615000  0.58799870  0.05353900  1
  O  O79  1  0.52385000  0.41200130  0.55353900  1
  O  O80  1  0.65475000  0.48796140  0.05815110  1
  O  O81  1  0.84525000  0.51203860  0.55815110  1
  O  O82  1  0.34525000  0.98796140  0.44184890  1
  O  O83  1  0.15475000  0.01203860  0.94184890  1
  O  O84  1  0.15475000  0.98796140  0.55815110  1
  O  O85  1  0.34525000  0.01203860  0.05815110  1
  O  O86  1  0.84525000  0.48796140  0.94184890  1
  O  O87  1  0.65475000  0.51203860  0.44184890  1
  O  O88  1  0.34525000  0.51203860  0.94184890  1
  O  O89  1  0.15475000  0.48796140  0.44184890  1
  O  O90  1  0.65475000  0.01203860  0.55815110  1
  O  O91  1  0.84525000  0.98796140  0.05815110  1
  O  O92  1  0.84525000  0.01203860  0.44184890  1
  O  O93  1  0.65475000  0.98796140  0.94184890  1
  O  O94  1  0.15475000  0.51203860  0.05815110  1
  O  O95  1  0.34525000  0.48796140  0.55815110  1
  N  N96  1  0.10955000  0.18726130  0.14249100  1
  N  N97  1  0.39045000  0.81273870  0.64249100  1
  N  N98  1  0.89045000  0.68726130  0.35750900  1
  N  N99  1  0.60955000  0.31273870  0.85750900  1
  N  N100  1  0.60955000  0.68726130  0.64249100  1
  N  N101  1  0.89045000  0.31273870  0.14249100  1
  N  N102  1  0.39045000  0.18726130  0.85750900  1
  N  N103  1  0.10955000  0.81273870  0.35750900  1
  N  N104  1  0.89045000  0.81273870  0.85750900  1
  N  N105  1  0.60955000  0.18726130  0.35750900  1
  N  N106  1  0.10955000  0.31273870  0.64249100  1
  N  N107  1  0.39045000  0.68726130  0.14249100  1
  N  N108  1  0.39045000  0.31273870  0.35750900  1
  N  N109  1  0.10955000  0.68726130  0.85750900  1
  N  N110  1  0.60955000  0.81273870  0.14249100  1
  N  N111  1  0.89045000  0.18726130  0.64249100  1
  N  N112  1  0.02165000  0.12589140  0.06850110  1
  N  N113  1  0.47835000  0.87410860  0.56850110  1
  N  N114  1  0.97835000  0.62589140  0.43149890  1
  N  N115  1  0.52165000  0.37410860  0.93149890  1
  N  N116  1  0.52165000  0.62589140  0.56850110  1
  N  N117  1  0.97835000  0.37410860  0.06850110  1
  N  N118  1  0.47835000  0.12589140  0.93149890  1
  N  N119  1  0.02165000  0.87410860  0.43149890  1
  N  N120  1  0.97835000  0.87410860  0.93149890  1
  N  N121  1  0.52165000  0.12589140  0.43149890  1
  N  N122  1  0.02165000  0.37410860  0.56850110  1
  N  N123  1  0.47835000  0.62589140  0.06850110  1
  N  N124  1  0.47835000  0.37410860  0.43149890  1
  N  N125  1  0.02165000  0.62589140  0.93149890  1
  N  N126  1  0.52165000  0.87410860  0.06850110  1
  N  N127  1  0.97835000  0.12589140  0.56850110  1
  C  C128  1  0.00206000  0.14185170  0.14417140  1
  C  C129  1  0.49794000  0.85814830  0.64417140  1
  C  C130  1  0.00000000  0.64185170  0.35582860  1
  C  C131  1  0.50206000  0.35814830  0.85582860  1
  C  C132  1  0.50206000  0.64185170  0.64417140  1
  C  C133  1  0.00000000  0.35814830  0.14417140  1
  C  C134  1  0.49794000  0.14185170  0.85582860  1
  C  C135  1  0.00206000  0.85814830  0.35582860  1
  C  C136  1  0.00000000  0.85814830  0.85582860  1
  C  C137  1  0.50206000  0.14185170  0.35582860  1
  C  C138  1  0.00206000  0.35814830  0.64417140  1
  C  C139  1  0.49794000  0.64185170  0.14417140  1
  C  C140  1  0.49794000  0.35814830  0.35582860  1
  C  C141  1  0.00206000  0.64185170  0.85582860  1
  C  C142  1  0.50206000  0.85814830  0.14417140  1
  C  C143  1  0.00000000  0.14185170  0.64417140  1
  H  H144  1  0.95480000  0.13030000  0.17080000  1
  H  H145  1  0.54520000  0.86970000  0.67080000  1
  H  H146  1  0.04520000  0.63030000  0.32920000  1
  H  H147  1  0.45480000  0.36970000  0.82920000  1
  H  H148  1  0.45480000  0.63030000  0.67080000  1
  H  H149  1  0.04520000  0.36970000  0.17080000  1
  H  H150  1  0.54520000  0.13030000  0.82920000  1
  H  H151  1  0.95480000  0.86970000  0.32920000  1
  H  H152  1  0.04520000  0.86970000  0.82920000  1
  H  H153  1  0.45480000  0.13030000  0.32920000  1
  H  H154  1  0.95480000  0.36970000  0.67080000  1
  H  H155  1  0.54520000  0.63030000  0.17080000  1
  H  H156  1  0.54520000  0.36970000  0.32920000  1
  H  H157  1  0.95480000  0.63030000  0.82920000  1
  H  H158  1  0.45480000  0.86970000  0.17080000  1
  H  H159  1  0.04520000  0.13030000  0.67080000  1
  C  C160  1  0.95934000  0.11166170  0.10740140  1
  C  C161  1  0.54066000  0.88833830  0.60740140  1
  C  C162  1  0.04066000  0.61166170  0.39259860  1
  C  C163  1  0.45934000  0.38833830  0.89259860  1
  C  C164  1  0.45934000  0.61166170  0.60740140  1
  C  C165  1  0.04066000  0.38833830  0.10740140  1
  C  C166  1  0.54066000  0.11166170  0.89259860  1
  C  C167  1  0.95934000  0.88833830  0.39259860  1
  C  C168  1  0.04066000  0.88833830  0.89259860  1
  C  C169  1  0.45934000  0.11166170  0.39259860  1
  C  C170  1  0.95934000  0.38833830  0.60740140  1
  C  C171  1  0.54066000  0.61166170  0.10740140  1
  C  C172  1  0.54066000  0.38833830  0.39259860  1
  C  C173  1  0.95934000  0.61166170  0.89259860  1
  C  C174  1  0.45934000  0.88833830  0.10740140  1
  C  C175  1  0.04066000  0.11166170  0.60740140  1
  H  H176  1  0.88430000  0.08010000  0.11000000  1
  H  H177  1  0.61570000  0.91990000  0.61000000  1
  H  H178  1  0.11570000  0.58010000  0.39000000  1
  H  H179  1  0.38430000  0.41990000  0.89000000  1
  H  H180  1  0.38430000  0.58010000  0.61000000  1
  H  H181  1  0.11570000  0.41990000  0.11000000  1
  H  H182  1  0.61570000  0.08010000  0.89000000  1
  H  H183  1  0.88430000  0.91990000  0.39000000  1
  H  H184  1  0.11570000  0.91990000  0.89000000  1
  H  H185  1  0.38430000  0.08010000  0.39000000  1
  H  H186  1  0.88430000  0.41990000  0.61000000  1
  H  H187  1  0.61570000  0.58010000  0.11000000  1
  H  H188  1  0.61570000  0.41990000  0.39000000  1
  H  H189  1  0.88430000  0.58010000  0.89000000  1
  H  H190  1  0.38430000  0.91990000  0.11000000  1
  H  H191  1  0.11570000  0.08010000  0.61000000  1
  C  C192  1  0.12647000  0.17169180  0.06687130  1
  C  C193  1  0.37353000  0.82830820  0.56687130  1
  C  C194  1  0.87353000  0.67169180  0.43312870  1
  C  C195  1  0.62647000  0.32830820  0.93312870  1
  C  C196  1  0.62647000  0.67169180  0.56687130  1
  C  C197  1  0.87353000  0.32830820  0.06687130  1
  C  C198  1  0.37353000  0.17169180  0.93312870  1
  C  C199  1  0.12647000  0.82830820  0.43312870  1
  C  C200  1  0.87353000  0.82830820  0.93312870  1
  C  C201  1  0.62647000  0.17169180  0.43312870  1
  C  C202  1  0.12647000  0.32830820  0.56687130  1
  C  C203  1  0.37353000  0.67169180  0.06687130  1
  C  C204  1  0.37353000  0.32830820  0.43312870  1
  C  C205  1  0.12647000  0.67169180  0.93312870  1
  C  C206  1  0.62647000  0.82830820  0.06687130  1
  C  C207  1  0.87353000  0.17169180  0.56687130  1
  H  H208  1  0.17120000  0.18360000  0.04000000  1
  H  H209  1  0.32880000  0.81640000  0.54000000  1
  H  H210  1  0.82880000  0.68360000  0.46000000  1
  H  H211  1  0.67120000  0.31640000  0.96000000  1
  H  H212  1  0.67120000  0.68360000  0.54000000  1
  H  H213  1  0.82880000  0.31640000  0.04000000  1
  H  H214  1  0.32880000  0.18360000  0.96000000  1
  H  H215  1  0.17120000  0.81640000  0.46000000  1
  H  H216  1  0.82880000  0.81640000  0.96000000  1
  H  H217  1  0.67120000  0.18360000  0.46000000  1
  H  H218  1  0.17120000  0.31640000  0.54000000  1
  H  H219  1  0.32880000  0.68360000  0.04000000  1
  H  H220  1  0.32880000  0.31640000  0.46000000  1
  H  H221  1  0.17120000  0.68360000  0.96000000  1
  H  H222  1  0.67120000  0.81640000  0.04000000  1
  H  H223  1  0.82880000  0.18360000  0.54000000  1
  C  C224  1  0.17096000  0.20205180  0.10330140  1
  C  C225  1  0.32904000  0.79794820  0.60330140  1
  C  C226  1  0.82904000  0.70205180  0.39669860  1
  C  C227  1  0.67096000  0.29794820  0.89669860  1
  C  C228  1  0.67096000  0.70205180  0.60330140  1
  C  C229  1  0.82904000  0.29794820  0.10330140  1
  C  C230  1  0.32904000  0.20205180  0.89669860  1
  C  C231  1  0.17096000  0.79794820  0.39669860  1
  C  C232  1  0.82904000  0.79794820  0.89669860  1
  C  C233  1  0.67096000  0.20205180  0.39669860  1
  C  C234  1  0.17096000  0.29794820  0.60330140  1
  C  C235  1  0.32904000  0.70205180  0.10330140  1
  C  C236  1  0.32904000  0.29794820  0.39669860  1
  C  C237  1  0.17096000  0.70205180  0.89669860  1
  C  C238  1  0.67096000  0.79794820  0.10330140  1
  C  C239  1  0.82904000  0.20205180  0.60330140  1
  H  H240  1  0.24560000  0.23370000  0.10060000  1
  H  H241  1  0.25440000  0.76630000  0.60060000  1
  H  H242  1  0.75440000  0.73370000  0.39940000  1
  H  H243  1  0.74560000  0.26630000  0.89940000  1
  H  H244  1  0.74560000  0.73370000  0.60060000  1
  H  H245  1  0.75440000  0.26630000  0.10060000  1
  H  H246  1  0.25440000  0.23370000  0.89940000  1
  H  H247  1  0.24560000  0.76630000  0.39940000  1
  H  H248  1  0.75440000  0.76630000  0.89940000  1
  H  H249  1  0.74560000  0.23370000  0.39940000  1
  H  H250  1  0.24560000  0.26630000  0.60060000  1
  H  H251  1  0.25440000  0.73370000  0.10060000  1
  H  H252  1  0.25440000  0.26630000  0.39940000  1
  H  H253  1  0.24560000  0.73370000  0.89940000  1
  H  H254  1  0.74560000  0.76630000  0.10060000  1
  H  H255  1  0.75440000  0.23370000  0.60060000  1
  C  C256  1  0.43245000  0.33659160  0.20989130  1
  C  C257  1  0.06755000  0.66340840  0.70989130  1
  C  C258  1  0.56755000  0.83659160  0.29010870  1
  C  C259  1  0.93245000  0.16340840  0.79010870  1
  C  C260  1  0.93245000  0.83659160  0.70989130  1
  C  C261  1  0.56755000  0.16340840  0.20989130  1
  C  C262  1  0.06755000  0.33659160  0.79010870  1
  C  C263  1  0.43245000  0.66340840  0.29010870  1
  C  C264  1  0.56755000  0.66340840  0.79010870  1
  C  C265  1  0.93245000  0.33659160  0.29010870  1
  C  C266  1  0.43245000  0.16340840  0.70989130  1
  C  C267  1  0.06755000  0.83659160  0.20989130  1
  C  C268  1  0.06755000  0.16340840  0.29010870  1
  C  C269  1  0.43245000  0.83659160  0.79010870  1
  C  C270  1  0.93245000  0.66340840  0.20989130  1
  C  C271  1  0.56755000  0.33659160  0.70989130  1
  C  C272  1  0.52655000  0.38544150  0.18808120  1
  C  C273  1  0.97345000  0.61455850  0.68808120  1
  C  C274  1  0.47345000  0.88544150  0.31191880  1
  C  C275  1  0.02655000  0.11455850  0.81191880  1
  C  C276  1  0.02655000  0.88544150  0.68808120  1
  C  C277  1  0.47345000  0.11455850  0.18808120  1
  C  C278  1  0.97345000  0.38544150  0.81191880  1
  C  C279  1  0.52655000  0.61455850  0.31191880  1
  C  C280  1  0.47345000  0.61455850  0.81191880  1
  C  C281  1  0.02655000  0.38544150  0.31191880  1
  C  C282  1  0.52655000  0.11455850  0.68808120  1
  C  C283  1  0.97345000  0.88544150  0.18808120  1
  C  C284  1  0.97345000  0.11455850  0.31191880  1
  C  C285  1  0.52655000  0.88544150  0.81191880  1
  C  C286  1  0.02655000  0.61455850  0.18808120  1
  C  C287  1  0.47345000  0.38544150  0.68808120  1
  C  C288  1  0.63416000  0.42259180  0.21170140  1
  C  C289  1  0.86584000  0.57740820  0.71170140  1
  C  C290  1  0.36584000  0.92259180  0.28829860  1
  C  C291  1  0.13416000  0.07740820  0.78829860  1
  C  C292  1  0.13416000  0.92259180  0.71170140  1
  C  C293  1  0.36584000  0.07740820  0.21170140  1
  C  C294  1  0.86584000  0.42259180  0.78829860  1
  C  C295  1  0.63416000  0.57740820  0.28829860  1
  C  C296  1  0.36584000  0.57740820  0.78829860  1
  C  C297  1  0.13416000  0.42259180  0.28829860  1
  C  C298  1  0.63416000  0.07740820  0.71170140  1
  C  C299  1  0.86584000  0.92259180  0.21170140  1
  C  C300  1  0.86584000  0.07740820  0.28829860  1
  C  C301  1  0.63416000  0.92259180  0.78829860  1
  C  C302  1  0.13416000  0.57740820  0.21170140  1
  C  C303  1  0.36584000  0.42259180  0.71170140  1
  H  H304  1  0.64530000  0.41830000  0.24170000  1
  H  H305  1  0.85470000  0.58170000  0.74170000  1
  H  H306  1  0.35470000  0.91830000  0.25830000  1
  H  H307  1  0.14530000  0.08170000  0.75830000  1
  H  H308  1  0.14530000  0.91830000  0.74170000  1
  H  H309  1  0.35470000  0.08170000  0.24170000  1
  H  H310  1  0.85470000  0.41830000  0.75830000  1
  H  H311  1  0.64530000  0.58170000  0.25830000  1
  H  H312  1  0.35470000  0.58170000  0.75830000  1
  H  H313  1  0.14530000  0.41830000  0.25830000  1
  H  H314  1  0.64530000  0.08170000  0.74170000  1
  H  H315  1  0.85470000  0.91830000  0.24170000  1
  H  H316  1  0.85470000  0.08170000  0.25830000  1
  H  H317  1  0.64530000  0.91830000  0.75830000  1
  H  H318  1  0.14530000  0.58170000  0.24170000  1
  H  H319  1  0.35470000  0.41830000  0.74170000  1
  C  C320  1  0.72476000  0.46607190  0.19096160  1
  C  C321  1  0.77524000  0.53392810  0.69096160  1
  C  C322  1  0.27524000  0.96607190  0.30903840  1
  C  C323  1  0.22476000  0.03392810  0.80903840  1
  C  C324  1  0.22476000  0.96607190  0.69096160  1
  C  C325  1  0.27524000  0.03392810  0.19096160  1
  C  C326  1  0.77524000  0.46607190  0.80903840  1
  C  C327  1  0.72476000  0.53392810  0.30903840  1
  C  C328  1  0.27524000  0.53392810  0.80903840  1
  C  C329  1  0.22476000  0.46607190  0.30903840  1
  C  C330  1  0.72476000  0.03392810  0.69096160  1
  C  C331  1  0.77524000  0.96607190  0.19096160  1
  C  C332  1  0.77524000  0.03392810  0.30903840  1
  C  C333  1  0.72476000  0.96607190  0.80903840  1
  C  C334  1  0.22476000  0.53392810  0.19096160  1
  C  C335  1  0.27524000  0.46607190  0.69096160  1
  H  H336  1  0.79680000  0.49100000  0.20700000  1
  H  H337  1  0.70320000  0.50900000  0.70700000  1
  H  H338  1  0.20320000  0.99100000  0.29300000  1
  H  H339  1  0.29680000  0.00900000  0.79300000  1
  H  H340  1  0.29680000  0.99100000  0.70700000  1
  H  H341  1  0.20320000  0.00900000  0.20700000  1
  H  H342  1  0.70320000  0.49100000  0.79300000  1
  H  H343  1  0.79680000  0.50900000  0.29300000  1
  H  H344  1  0.20320000  0.50900000  0.79300000  1
  H  H345  1  0.29680000  0.49100000  0.29300000  1
  H  H346  1  0.79680000  0.00900000  0.70700000  1
  H  H347  1  0.70320000  0.99100000  0.20700000  1
  H  H348  1  0.70320000  0.00900000  0.29300000  1
  H  H349  1  0.79680000  0.99100000  0.79300000  1
  H  H350  1  0.29680000  0.50900000  0.20700000  1
  H  H351  1  0.20320000  0.49100000  0.70700000  1
  C  C352  1  0.70866000  0.47264170  0.14676150  1
  C  C353  1  0.79134000  0.52735830  0.64676150  1
  C  C354  1  0.29134000  0.97264170  0.35323850  1
  C  C355  1  0.20866000  0.02735830  0.85323850  1
  C  C356  1  0.20866000  0.97264170  0.64676150  1
  C  C357  1  0.29134000  0.02735830  0.14676150  1
  C  C358  1  0.79134000  0.47264170  0.85323850  1
  C  C359  1  0.70866000  0.52735830  0.35323850  1
  C  C360  1  0.29134000  0.52735830  0.85323850  1
  C  C361  1  0.20866000  0.47264170  0.35323850  1
  C  C362  1  0.70866000  0.02735830  0.64676150  1
  C  C363  1  0.79134000  0.97264170  0.14676150  1
  C  C364  1  0.79134000  0.02735830  0.35323850  1
  C  C365  1  0.70866000  0.97264170  0.85323850  1
  C  C366  1  0.20866000  0.52735830  0.14676150  1
  C  C367  1  0.29134000  0.47264170  0.64676150  1
  H  H368  1  0.77230000  0.50150000  0.13290000  1
  H  H369  1  0.72770000  0.49850000  0.63290000  1
  H  H370  1  0.22770000  0.00150000  0.36710000  1
  H  H371  1  0.27230000  0.00000000  0.86710000  1
  H  H372  1  0.27230000  0.00150000  0.63290000  1
  H  H373  1  0.22770000  0.00000000  0.13290000  1
  H  H374  1  0.72770000  0.50150000  0.86710000  1
  H  H375  1  0.77230000  0.49850000  0.36710000  1
  H  H376  1  0.22770000  0.49850000  0.86710000  1
  H  H377  1  0.27230000  0.50150000  0.36710000  1
  H  H378  1  0.77230000  0.00000000  0.63290000  1
  H  H379  1  0.72770000  0.00150000  0.13290000  1
  H  H380  1  0.72770000  0.00000000  0.36710000  1
  H  H381  1  0.77230000  0.00150000  0.86710000  1
  H  H382  1  0.27230000  0.49850000  0.13290000  1
  H  H383  1  0.22770000  0.50150000  0.63290000  1
  C  C384  1  0.59875000  0.43680160  0.12244130  1
  C  C385  1  0.90125000  0.56319840  0.62244130  1
  C  C386  1  0.40125000  0.93680160  0.37755870  1
  C  C387  1  0.09875000  0.06319840  0.87755870  1
  C  C388  1  0.09875000  0.93680160  0.62244130  1
  C  C389  1  0.40125000  0.06319840  0.12244130  1
  C  C390  1  0.90125000  0.43680160  0.87755870  1
  C  C391  1  0.59875000  0.56319840  0.37755870  1
  C  C392  1  0.40125000  0.56319840  0.87755870  1
  C  C393  1  0.09875000  0.43680160  0.37755870  1
  C  C394  1  0.59875000  0.06319840  0.62244130  1
  C  C395  1  0.90125000  0.93680160  0.12244130  1
  C  C396  1  0.90125000  0.06319840  0.37755870  1
  C  C397  1  0.59875000  0.93680160  0.87755870  1
  C  C398  1  0.09875000  0.56319840  0.12244130  1
  C  C399  1  0.40125000  0.43680160  0.62244130  1
  C  C400  1  0.50915000  0.39273150  0.14327120  1
  C  C401  1  0.99085000  0.60726850  0.64327120  1
  C  C402  1  0.49085000  0.89273150  0.35672880  1
  C  C403  1  0.00915000  0.10726850  0.85672880  1
  C  C404  1  0.00915000  0.89273150  0.64327120  1
  C  C405  1  0.49085000  0.10726850  0.14327120  1
  C  C406  1  0.99085000  0.39273150  0.85672880  1
  C  C407  1  0.50915000  0.60726850  0.35672880  1
  C  C408  1  0.49085000  0.60726850  0.85672880  1
  C  C409  1  0.00915000  0.39273150  0.35672880  1
  C  C410  1  0.50915000  0.10726850  0.64327120  1
  C  C411  1  0.99085000  0.89273150  0.14327120  1
  C  C412  1  0.99085000  0.10726850  0.35672880  1
  C  C413  1  0.50915000  0.89273150  0.85672880  1
  C  C414  1  0.00915000  0.60726850  0.14327120  1
  C  C415  1  0.49085000  0.39273150  0.64327120  1
  H  H416  1  0.43700000  0.36790000  0.12720000  1
  H  H417  1  0.06300000  0.63210000  0.62720000  1
  H  H418  1  0.56300000  0.86790000  0.37280000  1
  H  H419  1  0.93700000  0.13210000  0.87280000  1
  H  H420  1  0.93700000  0.86790000  0.62720000  1
  H  H421  1  0.56300000  0.13210000  0.12720000  1
  H  H422  1  0.06300000  0.36790000  0.87280000  1
  H  H423  1  0.43700000  0.63210000  0.37280000  1
  H  H424  1  0.56300000  0.63210000  0.87280000  1
  H  H425  1  0.93700000  0.36790000  0.37280000  1
  H  H426  1  0.43700000  0.13210000  0.62720000  1
  H  H427  1  0.06300000  0.86790000  0.12720000  1
  H  H428  1  0.06300000  0.13210000  0.37280000  1
  H  H429  1  0.43700000  0.86790000  0.87280000  1
  H  H430  1  0.93700000  0.63210000  0.12720000  1
  H  H431  1  0.56300000  0.36790000  0.62720000  1
  C  C432  1  0.57506000  0.44619170  0.07455140  1
  C  C433  1  0.92494000  0.55380830  0.57455140  1
  C  C434  1  0.42494000  0.94619170  0.42544860  1
  C  C435  1  0.07506000  0.05380830  0.92544860  1
  C  C436  1  0.07506000  0.94619170  0.57455140  1
  C  C437  1  0.42494000  0.05380830  0.07455140  1
  C  C438  1  0.92494000  0.44619170  0.92544860  1
  C  C439  1  0.57506000  0.55380830  0.42544860  1
  C  C440  1  0.42494000  0.55380830  0.92544860  1
  C  C441  1  0.07506000  0.44619170  0.42544860  1
  C  C442  1  0.57506000  0.05380830  0.57455140  1
  C  C443  1  0.92494000  0.94619170  0.07455140  1
  C  C444  1  0.92494000  0.05380830  0.42544860  1
  C  C445  1  0.57506000  0.94619170  0.92544860  1
  C  C446  1  0.07506000  0.55380830  0.07455140  1
  C  C447  1  0.42494000  0.44619170  0.57455140  1
