data_image0
_chemical_formula_structural       Cu12H48C72N36
_chemical_formula_sum              "Cu12 H48 C72 N36"
_cell_length_a       25.1145
_cell_length_b       27.2555
_cell_length_c       29.3818
_cell_angle_alpha    82.4016
_cell_angle_beta     87.6563
_cell_angle_gamma    85.6933

_symmetry_space_group_name_H-M    "P 1"
_symmetry_int_tables_number       1

loop_
  _symmetry_equiv_pos_as_xyz
  'x, y, z'

loop_
  _atom_site_type_symbol
  _atom_site_label
  _atom_site_symmetry_multiplicity
  _atom_site_fract_x
  _atom_site_fract_y
  _atom_site_fract_z
  _atom_site_occupancy
  Cu  Cu1       1.0  0.16007  0.90227  0.06920  1.0000
  Cu  Cu2       1.0  0.06072  0.83783  0.12382  1.0000
  Cu  Cu3       1.0  0.09183  0.95002  0.15518  1.0000
  Cu  Cu4       1.0  0.65347  0.10957  0.41937  1.0000
  Cu  Cu5       1.0  0.56816  0.19175  0.35889  1.0000
  Cu  Cu6       1.0  0.58466  0.06931  0.33852  1.0000
  Cu  Cu7       1.0  0.36845  0.40836  0.91401  1.0000
  Cu  Cu8       1.0  0.41859  0.33417  0.83720  1.0000
  Cu  Cu9       1.0  0.41315  0.46177  0.81216  1.0000
  Cu  Cu10      1.0  0.87574  0.57440  0.59594  1.0000
  Cu  Cu11      1.0  0.90000  0.65807  0.67080  1.0000
  Cu  Cu12      1.0  0.89011  0.53811  0.70813  1.0000
  H   H1        1.0  0.19693  0.82599  0.99567  1.0000
  H   H2        1.0  0.06535  0.74942  0.05960  1.0000
  H   H3        1.0  0.17893  0.02266  0.18026  1.0000
  H   H4        1.0  0.26368  0.96957  0.06507  1.0000
  H   H5        1.0  0.97135  0.81270  0.20651  1.0000
  H   H6        1.0  0.00339  0.95657  0.23679  1.0000
  H   H7        1.0  0.67003  0.17338  0.50381  1.0000
  H   H8        1.0  0.55436  0.27348  0.43029  1.0000
  H   H9        1.0  0.66550  0.97631  0.31772  1.0000
  H   H10       1.0  0.75283  0.02334  0.42439  1.0000
  H   H11       1.0  0.48739  0.23011  0.27493  1.0000
  H   H12       1.0  0.50115  0.07624  0.25777  1.0000
  H   H13       1.0  0.36131  0.32470  0.00309  1.0000
  H   H14       1.0  0.41195  0.22892  0.90294  1.0000
  H   H15       1.0  0.32252  0.55439  0.79770  1.0000
  H   H16       1.0  0.27049  0.48956  0.93125  1.0000
  H   H17       1.0  0.49969  0.30992  0.75272  1.0000
  H   H18       1.0  0.49874  0.46808  0.72678  1.0000
  H   H19       1.0  0.87050  0.65335  0.50311  1.0000
  H   H20       1.0  0.88746  0.75769  0.59744  1.0000
  H   H21       1.0  0.80784  0.45000  0.72058  1.0000
  H   H22       1.0  0.79950  0.48896  0.57507  1.0000
  H   H23       1.0  0.97990  0.68288  0.74796  1.0000
  H   H24       1.0  0.97668  0.52652  0.78979  1.0000
  H   H25       1.0  0.06575  0.74361  0.96215  1.0000
  H   H26       1.0  0.18493  0.72147  0.97986  1.0000
  H   H27       1.0  0.69432  0.25858  0.52654  1.0000
  H   H28       1.0  0.57494  0.29024  0.52249  1.0000
  H   H29       1.0  0.41119  0.24728  0.05417  1.0000
  H   H30       1.0  0.36358  0.18517  0.98852  1.0000
  H   H31       1.0  0.89640  0.72220  0.44525  1.0000
  H   H32       1.0  0.85915  0.79872  0.50933  1.0000
  H   H33       1.0  0.28741  0.07015  0.06223  1.0000
  H   H34       1.0  0.28916  0.04246  0.16660  1.0000
  H   H35       1.0  0.77153  0.39671  0.58319  1.0000
  H   H36       1.0  0.72224  0.41580  0.67682  1.0000
  H   H37       1.0  0.78484  0.92892  0.43320  1.0000
  H   H38       1.0  0.76880  0.93158  0.33022  1.0000
  H   H39       1.0  0.23139  0.57947  0.93382  1.0000
  H   H40       1.0  0.21924  0.58786  0.82982  1.0000
  H   H41       1.0  0.94281  0.80294  0.29127  1.0000
  H   H42       1.0  0.91900  0.91528  0.28601  1.0000
  H   H43       1.0  0.54225  0.31383  0.67417  1.0000
  H   H44       1.0  0.57929  0.41677  0.68194  1.0000
  H   H45       1.0  0.01217  0.68197  0.82705  1.0000
  H   H46       1.0  0.05636  0.57406  0.82828  1.0000
  H   H47       1.0  0.41843  0.09595  0.21884  1.0000
  H   H48       1.0  0.44477  0.20422  0.19331  1.0000
  C   C1        1.0  0.65560  0.30903  0.57244  1.0000
  C   C2        1.0  0.69859  0.36636  0.60905  1.0000
  C   C3        1.0  0.61341  0.34196  0.63593  1.0000
  C   C4        1.0  0.11257  0.68901  0.92928  1.0000
  C   C5        1.0  0.16466  0.62436  0.89929  1.0000
  C   C6        1.0  0.08059  0.65161  0.86881  1.0000
  C   C7        1.0  0.87264  0.79969  0.41852  1.0000
  C   C8        1.0  0.83087  0.87782  0.39147  1.0000
  C   C9        1.0  0.89179  0.83710  0.34326  1.0000
  C   C10       1.0  0.38123  0.17700  0.07820  1.0000
  C   C11       1.0  0.39220  0.13783  0.15405  1.0000
  C   C12       1.0  0.33745  0.10433  0.10430  1.0000
  C   C13       1.0  0.16314  0.81494  0.01764  1.0000
  C   C14       1.0  0.13434  0.77412  0.01594  1.0000
  C   C15       1.0  0.09515  0.77591  0.05016  1.0000
  C   C16       1.0  0.19092  0.00329  0.15124  1.0000
  C   C17       1.0  0.23686  0.00837  0.12430  1.0000
  C   C18       1.0  0.23403  0.97655  0.09162  1.0000
  C   C19       1.0  0.98694  0.84871  0.20590  1.0000
  C   C20       1.0  0.97227  0.88353  0.23522  1.0000
  C   C21       1.0  0.00264  0.92302  0.22092  1.0000
  C   C22       1.0  0.64230  0.19125  0.47854  1.0000
  C   C23       1.0  0.61277  0.23599  0.47982  1.0000
  C   C24       1.0  0.58230  0.24238  0.44116  1.0000
  C   C25       1.0  0.67854  0.99582  0.34457  1.0000
  C   C26       1.0  0.72376  0.98426  0.36996  1.0000
  C   C27       1.0  0.72304  0.01972  0.39972  1.0000
  C   C28       1.0  0.49710  0.19046  0.27916  1.0000
  C   C29       1.0  0.47897  0.15665  0.25328  1.0000
  C   C30       1.0  0.50320  0.11128  0.27089  1.0000
  C   C31       1.0  0.37655  0.31021  0.97219  1.0000
  C   C32       1.0  0.38697  0.26086  0.96636  1.0000
  C   C33       1.0  0.40147  0.26094  0.92050  1.0000
  C   C34       1.0  0.31946  0.53169  0.83069  1.0000
  C   C35       1.0  0.28150  0.53757  0.86527  1.0000
  C   C36       1.0  0.29318  0.49880  0.89958  1.0000
  C   C37       1.0  0.48928  0.34921  0.75228  1.0000
  C   C38       1.0  0.51190  0.38759  0.72425  1.0000
  C   C39       1.0  0.48944  0.43050  0.73941  1.0000
  C   C40       1.0  0.87723  0.67044  0.53337  1.0000
  C   C41       1.0  0.87852  0.72065  0.53613  1.0000
  C   C42       1.0  0.88473  0.72409  0.58202  1.0000
  C   C43       1.0  0.81518  0.46563  0.68529  1.0000
  C   C44       1.0  0.79205  0.45332  0.64688  1.0000
  C   C45       1.0  0.81157  0.48509  0.61037  1.0000
  C   C46       1.0  0.97027  0.64449  0.75200  1.0000
  C   C47       1.0  0.99154  0.60602  0.78299  1.0000
  C   C48       1.0  0.96927  0.56403  0.77292  1.0000
  C   C49       1.0  0.10485  0.72410  0.95993  1.0000
  C   C50       1.0  0.14419  0.73643  0.98470  1.0000
  C   C51       1.0  0.65626  0.27587  0.53687  1.0000
  C   C52       1.0  0.61200  0.26917  0.51541  1.0000
  C   C53       1.0  0.39139  0.21644  0.04432  1.0000
  C   C54       1.0  0.37877  0.21729  0.00036  1.0000
  C   C55       1.0  0.88069  0.75756  0.45502  1.0000
  C   C56       1.0  0.87118  0.76254  0.49935  1.0000
  C   C57       1.0  0.30131  0.06989  0.09673  1.0000
  C   C58       1.0  0.27976  0.03994  0.13135  1.0000
  C   C59       1.0  0.74192  0.39520  0.61116  1.0000
  C   C60       1.0  0.74859  0.42015  0.64663  1.0000
  C   C61       1.0  0.79260  0.91986  0.39862  1.0000
  C   C62       1.0  0.76448  0.94392  0.36385  1.0000
  C   C63       1.0  0.21285  0.59019  0.90099  1.0000
  C   C64       1.0  0.23492  0.57374  0.86320  1.0000
  C   C65       1.0  0.92386  0.83761  0.30009  1.0000
  C   C66       1.0  0.93452  0.88050  0.27485  1.0000
  C   C67       1.0  0.56765  0.34462  0.66866  1.0000
  C   C68       1.0  0.55613  0.38459  0.69012  1.0000
  C   C69       1.0  0.03899  0.64929  0.83550  1.0000
  C   C70       1.0  0.03234  0.60790  0.81714  1.0000
  C   C71       1.0  0.41939  0.13180  0.19800  1.0000
  C   C72       1.0  0.44609  0.16728  0.21227  1.0000
  N   N1        1.0  0.69806  0.33629  0.57574  1.0000
  N   N2        1.0  0.65614  0.36892  0.63912  1.0000
  N   N3        1.0  0.61336  0.31187  0.60265  1.0000
  N   N4        1.0  0.15778  0.65817  0.92941  1.0000
  N   N5        1.0  0.12601  0.62118  0.86899  1.0000
  N   N6        1.0  0.07406  0.68540  0.89899  1.0000
  N   N7        1.0  0.83914  0.83973  0.42568  1.0000
  N   N8        1.0  0.85754  0.87649  0.35050  1.0000
  N   N9        1.0  0.89856  0.79833  0.37712  1.0000
  N   N10       1.0  0.40232  0.17539  0.12030  1.0000
  N   N11       1.0  0.35951  0.10280  0.14597  1.0000
  N   N12       1.0  0.34934  0.14095  0.07021  1.0000
  N   N13       1.0  0.10103  0.81612  0.07111  1.0000
  N   N14       1.0  0.14113  0.83998  0.05109  1.0000
  N   N15       1.0  0.18812  0.95369  0.09958  1.0000
  N   N16       1.0  0.16219  0.97022  0.13488  1.0000
  N   N17       1.0  0.03425  0.91178  0.18521  1.0000
  N   N18       1.0  0.02452  0.86738  0.17569  1.0000
  N   N19       1.0  0.59390  0.20323  0.41807  1.0000
  N   N20       1.0  0.62937  0.17235  0.44070  1.0000
  N   N21       1.0  0.67907  0.05073  0.39166  1.0000
  N   N22       1.0  0.65233  0.03606  0.35895  1.0000
  N   N23       1.0  0.53404  0.11828  0.30544  1.0000
  N   N24       1.0  0.53015  0.16574  0.31077  1.0000
  N   N25       1.0  0.40043  0.30840  0.90060  1.0000
  N   N26       1.0  0.38463  0.33780  0.93136  1.0000
  N   N27       1.0  0.33599  0.47144  0.88537  1.0000
  N   N28       1.0  0.35202  0.49139  0.84437  1.0000
  N   N29       1.0  0.45513  0.41786  0.77458  1.0000
  N   N30       1.0  0.45517  0.36904  0.78264  1.0000
  N   N31       1.0  0.88735  0.67798  0.60509  1.0000
  N   N32       1.0  0.88246  0.64573  0.57595  1.0000
  N   N33       1.0  0.84424  0.51496  0.62704  1.0000
  N   N34       1.0  0.84717  0.50261  0.67173  1.0000
  N   N35       1.0  0.93614  0.57753  0.73789  1.0000
  N   N36       1.0  0.93734  0.62551  0.72492  1.0000
