data_image0
_chemical_formula_structural       Cu12H90C120N24
_chemical_formula_sum              "Cu12 H90 C120 N24"
_cell_length_a       31.3665
_cell_length_b       32.9715
_cell_length_c       34.7496
_cell_angle_alpha    89.4356
_cell_angle_beta     86.8081
_cell_angle_gamma    88.2092

_symmetry_space_group_name_H-M    "P 1"
_symmetry_int_tables_number       1

loop_
  _symmetry_equiv_pos_as_xyz
  'x, y, z'

loop_
  _atom_site_type_symbol
  _atom_site_label
  _atom_site_symmetry_multiplicity
  _atom_site_fract_x
  _atom_site_fract_y
  _atom_site_fract_z
  _atom_site_occupancy
  Cu  Cu1       1.0  0.76171  0.18765  0.13951  1.0000
  Cu  Cu2       1.0  0.82059  0.21546  0.21162  1.0000
  Cu  Cu3       1.0  0.78053  0.11849  0.20846  1.0000
  Cu  Cu4       1.0  0.82579  0.78264  0.83436  1.0000
  Cu  Cu5       1.0  0.92014  0.80018  0.78706  1.0000
  Cu  Cu6       1.0  0.82790  0.85295  0.76397  1.0000
  Cu  Cu7       1.0  0.20201  0.21011  0.86660  1.0000
  Cu  Cu8       1.0  0.13395  0.20366  0.79584  1.0000
  Cu  Cu9       1.0  0.21856  0.13436  0.80296  1.0000
  Cu  Cu10      1.0  0.20740  0.77905  0.16533  1.0000
  Cu  Cu11      1.0  0.11587  0.79913  0.21755  1.0000
  Cu  Cu12      1.0  0.20273  0.86086  0.22219  1.0000
  H   H1        1.0  0.79944  0.24993  0.07366  1.0000
  H   H2        1.0  0.87012  0.28880  0.16795  1.0000
  H   H3        1.0  0.73268  0.04336  0.17155  1.0000
  H   H4        1.0  0.70320  0.13369  0.08684  1.0000
  H   H5        1.0  0.87361  0.20225  0.28789  1.0000
  H   H6        1.0  0.82431  0.08308  0.28503  1.0000
  H   H7        1.0  0.85917  0.71372  0.89446  1.0000
  H   H8        1.0  0.97945  0.74101  0.83762  1.0000
  H   H9        1.0  0.74918  0.91046  0.79712  1.0000
  H   H10       1.0  0.74375  0.81923  0.88571  1.0000
  H   H11       1.0  0.98468  0.84597  0.72565  1.0000
  H   H12       1.0  0.86935  0.90677  0.69405  1.0000
  H   H13       1.0  0.14962  0.27835  0.91859  1.0000
  H   H14       1.0  0.06063  0.26693  0.83075  1.0000
  H   H15       1.0  0.28924  0.08232  0.84816  1.0000
  H   H16       1.0  0.26383  0.17529  0.93224  1.0000
  H   H17       1.0  0.10001  0.17062  0.71579  1.0000
  H   H18       1.0  0.20230  0.08350  0.72593  1.0000
  H   H19       1.0  0.17670  0.70020  0.11936  1.0000
  H   H20       1.0  0.06011  0.72830  0.18477  1.0000
  H   H21       1.0  0.27294  0.91399  0.17473  1.0000
  H   H22       1.0  0.28189  0.80864  0.10311  1.0000
  H   H23       1.0  0.05106  0.85157  0.27540  1.0000
  H   H24       1.0  0.16025  0.92439  0.28479  1.0000
  H   H25       1.0  0.06205  0.01278  0.46464  1.0000
  H   H26       1.0  0.95102  0.09298  0.47035  1.0000
  H   H27       1.0  0.05021  0.09903  0.52001  1.0000
  H   H28       1.0  0.96236  0.00156  0.51743  1.0000
  H   H29       1.0  0.00731  0.05498  0.36030  1.0000
  H   H30       1.0  0.01075  0.03736  0.62498  1.0000
  H   H31       1.0  0.04432  0.47316  0.98304  1.0000
  H   H32       1.0  0.94595  0.47231  0.07426  1.0000
  H   H33       1.0  0.95110  0.52660  0.98181  1.0000
  H   H34       1.0  0.03575  0.52694  0.07505  1.0000
  H   H35       1.0  0.99289  0.36000  0.02329  1.0000
  H   H36       1.0  0.99061  0.63977  0.02628  1.0000
  H   H37       1.0  0.53561  0.91065  0.95779  1.0000
  H   H38       1.0  0.52827  0.02100  0.02318  1.0000
  H   H39       1.0  0.47281  0.92811  0.04166  1.0000
  H   H40       1.0  0.47736  0.00535  0.94118  1.0000
  H   H41       1.0  0.65079  0.96710  0.98846  1.0000
  H   H42       1.0  0.35639  0.97877  0.99867  1.0000
  H   H43       1.0  0.89555  0.33953  0.12733  1.0000
  H   H44       1.0  0.91791  0.34934  0.03858  1.0000
  H   H45       1.0  0.85747  0.30571  0.05546  1.0000
  H   H46       1.0  0.93257  0.40243  0.10804  1.0000
  H   H47       1.0  0.89890  0.65657  0.92323  1.0000
  H   H48       1.0  0.98886  0.65168  0.95929  1.0000
  H   H49       1.0  0.98484  0.69531  0.90319  1.0000
  H   H50       1.0  0.91352  0.59487  0.96369  1.0000
  H   H51       1.0  0.10814  0.34136  0.93383  1.0000
  H   H52       1.0  0.00954  0.34982  0.95495  1.0000
  H   H53       1.0  0.02997  0.30822  0.89722  1.0000
  H   H54       1.0  0.08444  0.40399  0.96905  1.0000
  H   H55       1.0  0.02748  0.68906  0.14208  1.0000
  H   H56       1.0  0.99182  0.65366  0.09220  1.0000
  H   H57       1.0  0.10943  0.65184  0.10342  1.0000
  H   H58       1.0  0.06963  0.59536  0.09090  1.0000
  H   H59       1.0  0.65961  0.08640  0.06157  1.0000
  H   H60       1.0  0.65663  0.99153  0.05571  1.0000
  H   H61       1.0  0.69029  0.01656  0.11285  1.0000
  H   H62       1.0  0.59882  0.06049  0.02703  1.0000
  H   H63       1.0  0.31179  0.94577  0.12644  1.0000
  H   H64       1.0  0.34479  0.97885  0.06809  1.0000
  H   H65       1.0  0.33157  0.86923  0.07873  1.0000
  H   H66       1.0  0.39861  0.89995  0.06369  1.0000
  H   H67       1.0  0.68306  0.85540  0.91176  1.0000
  H   H68       1.0  0.65713  0.94790  0.91657  1.0000
  H   H69       1.0  0.69523  0.92752  0.85645  1.0000
  H   H70       1.0  0.61442  0.87303  0.95184  1.0000
  H   H71       1.0  0.34074  0.05692  0.88776  1.0000
  H   H72       1.0  0.35080  0.05064  0.97697  1.0000
  H   H73       1.0  0.31353  0.11311  0.95493  1.0000
  H   H74       1.0  0.40445  0.01685  0.90766  1.0000
  H   H75       1.0  0.92965  0.16885  0.32081  1.0000
  H   H76       1.0  0.98577  0.12722  0.35227  1.0000
  H   H77       1.0  0.87639  0.09569  0.34449  1.0000
  H   H78       1.0  0.91031  0.10043  0.40505  1.0000
  H   H79       1.0  0.09530  0.14322  0.65113  1.0000
  H   H80       1.0  0.08565  0.05137  0.63108  1.0000
  H   H81       1.0  0.14228  0.06476  0.67448  1.0000
  H   H82       1.0  0.05995  0.12990  0.58955  1.0000
  H   H83       1.0  0.11939  0.95555  0.33942  1.0000
  H   H84       1.0  0.02268  0.98356  0.35120  1.0000
  H   H85       1.0  0.03535  0.92250  0.31395  1.0000
  H   H86       1.0  0.10079  0.99978  0.39695  1.0000
  H   H87       1.0  0.91171  0.93345  0.64022  1.0000
  H   H88       1.0  0.00474  0.96697  0.63235  1.0000
  H   H89       1.0  0.99610  0.90983  0.67598  1.0000
  H   H90       1.0  0.92734  0.97775  0.58302  1.0000
  C   C1        1.0  0.81173  0.25416  0.10178  1.0000
  C   C2        1.0  0.84171  0.28165  0.11143  1.0000
  C   C3        1.0  0.84773  0.27454  0.15021  1.0000
  C   C4        1.0  0.72963  0.07140  0.15537  1.0000
  C   C5        1.0  0.70830  0.07736  0.12191  1.0000
  C   C6        1.0  0.71385  0.11782  0.11210  1.0000
  C   C7        1.0  0.85542  0.17608  0.28143  1.0000
  C   C8        1.0  0.85619  0.13878  0.30002  1.0000
  C   C9        1.0  0.82986  0.11493  0.27991  1.0000
  C   C10       1.0  0.88390  0.72458  0.87436  1.0000
  C   C11       1.0  0.92733  0.71557  0.87452  1.0000
  C   C12       1.0  0.94571  0.73910  0.84546  1.0000
  C   C13       1.0  0.75379  0.88307  0.81400  1.0000
  C   C14       1.0  0.73192  0.87269  0.84810  1.0000
  C   C15       1.0  0.75064  0.83607  0.85935  1.0000
  C   C16       1.0  0.95151  0.85490  0.72297  1.0000
  C   C17       1.0  0.93592  0.88370  0.69787  1.0000
  C   C18       1.0  0.89226  0.88585  0.70625  1.0000
  C   C19       1.0  0.13471  0.27127  0.89225  1.0000
  C   C20       1.0  0.09501  0.28493  0.88122  1.0000
  C   C21       1.0  0.08883  0.26499  0.84731  1.0000
  C   C22       1.0  0.27883  0.10991  0.86290  1.0000
  C   C23       1.0  0.28875  0.12178  0.89945  1.0000
  C   C24       1.0  0.26529  0.15743  0.90621  1.0000
  C   C25       1.0  0.12905  0.15509  0.72395  1.0000
  C   C26       1.0  0.14828  0.12111  0.70663  1.0000
  C   C27       1.0  0.18149  0.11014  0.72938  1.0000
  C   C28       1.0  0.15297  0.71241  0.14025  1.0000
  C   C29       1.0  0.11107  0.70076  0.14588  1.0000
  C   C30       1.0  0.09291  0.72703  0.17347  1.0000
  C   C31       1.0  0.26968  0.88423  0.16264  1.0000
  C   C32       1.0  0.29026  0.86837  0.12948  1.0000
  C   C33       1.0  0.27446  0.82990  0.12623  1.0000
  C   C34       1.0  0.08305  0.86301  0.27318  1.0000
  C   C35       1.0  0.09685  0.89694  0.29110  1.0000
  C   C36       1.0  0.13923  0.90023  0.27851  1.0000
  C   C37       1.0  0.03848  0.03119  0.45016  1.0000
  C   C38       1.0  0.00706  0.05344  0.47198  1.0000
  C   C39       1.0  0.97564  0.07627  0.45342  1.0000
  C   C40       1.0  0.97634  0.07786  0.41304  1.0000
  C   C41       1.0  0.00749  0.05487  0.39148  1.0000
  C   C42       1.0  0.03808  0.03081  0.40990  1.0000
  C   C43       1.0  0.00614  0.05078  0.51425  1.0000
  C   C44       1.0  0.03162  0.07599  0.53501  1.0000
  C   C45       1.0  0.03402  0.07072  0.57491  1.0000
  C   C46       1.0  0.01020  0.04041  0.59394  1.0000
  C   C47       1.0  0.98422  0.01531  0.57345  1.0000
  C   C48       1.0  0.98198  0.02099  0.53359  1.0000
  C   C49       1.0  0.02247  0.45646  0.00205  1.0000
  C   C50       1.0  0.99482  0.47747  0.02851  1.0000
  C   C51       1.0  0.96700  0.45598  0.05357  1.0000
  C   C52       1.0  0.96547  0.41363  0.05129  1.0000
  C   C53       1.0  0.99270  0.39284  0.02412  1.0000
  C   C54       1.0  0.02152  0.41410  0.99962  1.0000
  C   C55       1.0  0.99351  0.52207  0.02851  1.0000
  C   C56       1.0  0.96898  0.54325  0.00194  1.0000
  C   C57       1.0  0.96838  0.58571  0.00054  1.0000
  C   C58       1.0  0.99135  0.60692  0.02703  1.0000
  C   C59       1.0  0.01529  0.58601  0.05440  1.0000
  C   C60       1.0  0.01688  0.54343  0.05450  1.0000
  C   C61       1.0  0.55137  0.93458  0.97212  1.0000
  C   C62       1.0  0.52694  0.96563  0.99085  1.0000
  C   C63       1.0  0.54728  0.99704  0.00876  1.0000
  C   C64       1.0  0.59188  0.99716  0.00894  1.0000
  C   C65       1.0  0.61622  0.96656  0.98937  1.0000
  C   C66       1.0  0.59612  0.93555  0.97042  1.0000
  C   C67       1.0  0.48005  0.96636  0.99120  1.0000
  C   C68       1.0  0.45638  0.94637  0.02064  1.0000
  C   C69       1.0  0.41176  0.95125  0.02394  1.0000
  C   C70       1.0  0.39093  0.97579  0.99699  1.0000
  C   C71       1.0  0.41440  0.99505  0.96683  1.0000
  C   C72       1.0  0.45896  0.99000  0.96397  1.0000
  C   C73       1.0  0.86325  0.30793  0.08585  1.0000
  C   C74       1.0  0.89078  0.33509  0.09704  1.0000
  C   C75       1.0  0.91603  0.35885  0.06842  1.0000
  C   C76       1.0  0.93697  0.39135  0.07877  1.0000
  C   C77       1.0  0.95085  0.69068  0.90210  1.0000
  C   C78       1.0  0.93239  0.66293  0.92518  1.0000
  C   C79       1.0  0.95759  0.64080  0.95354  1.0000
  C   C80       1.0  0.94329  0.60749  0.97158  1.0000
  C   C81       1.0  0.06336  0.31080  0.90307  1.0000
  C   C82       1.0  0.07465  0.33699  0.92945  1.0000
  C   C83       1.0  0.04218  0.35987  0.95331  1.0000
  C   C84       1.0  0.05251  0.39239  0.97303  1.0000
  C   C85       1.0  0.08972  0.67045  0.12327  1.0000
  C   C86       1.0  0.04706  0.66839  0.12416  1.0000
  C   C87       1.0  0.02394  0.64319  0.09793  1.0000
  C   C88       1.0  0.03948  0.60841  0.08227  1.0000
  C   C89       1.0  0.68776  0.04754  0.10223  1.0000
  C   C90       1.0  0.66478  0.05551  0.07157  1.0000
  C   C91       1.0  0.64511  0.02249  0.05132  1.0000
  C   C92       1.0  0.61250  0.02998  0.02887  1.0000
  C   C93       1.0  0.31845  0.88714  0.10281  1.0000
  C   C94       1.0  0.32728  0.92664  0.10439  1.0000
  C   C95       1.0  0.35322  0.94736  0.07393  1.0000
  C   C96       1.0  0.38727  0.92988  0.05507  1.0000
  C   C97       1.0  0.70128  0.89732  0.86799  1.0000
  C   C98       1.0  0.67986  0.88605  0.90053  1.0000
  C   C99       1.0  0.65234  0.91588  0.92214  1.0000
  C   C100      1.0  0.62185  0.90476  0.94813  1.0000
  C   C101      1.0  0.31379  0.10130  0.92590  1.0000
  C   C102      1.0  0.33777  0.06805  0.91704  1.0000
  C   C103      1.0  0.36050  0.04565  0.94690  1.0000
  C   C104      1.0  0.39270  0.01948  0.93750  1.0000
  C   C105      1.0  0.88379  0.12436  0.33058  1.0000
  C   C106      1.0  0.92023  0.14239  0.33749  1.0000
  C   C107      1.0  0.95259  0.12324  0.36153  1.0000
  C   C108      1.0  0.94301  0.10135  0.39334  1.0000
  C   C109      1.0  0.13209  0.09646  0.67587  1.0000
  C   C110      1.0  0.10426  0.11121  0.65117  1.0000
  C   C111      1.0  0.08332  0.08377  0.62552  1.0000
  C   C112      1.0  0.06008  0.09787  0.59691  1.0000
  C   C113      1.0  0.06964  0.92532  0.31468  1.0000
  C   C114      1.0  0.08524  0.95353  0.33687  1.0000
  C   C115      1.0  0.05588  0.98180  0.35847  1.0000
  C   C116      1.0  0.06854  0.00387  0.38756  1.0000
  C   C117      1.0  0.96203  0.90993  0.67215  1.0000
  C   C118      1.0  0.94545  0.93405  0.64534  1.0000
  C   C119      1.0  0.97260  0.96276  0.62344  1.0000
  C   C120      1.0  0.95836  0.98397  0.59352  1.0000
  N   N1        1.0  0.82286  0.24382  0.16216  1.0000
  N   N2        1.0  0.80093  0.23200  0.13337  1.0000
  N   N3        1.0  0.73762  0.13429  0.13863  1.0000
  N   N4        1.0  0.74679  0.10665  0.16466  1.0000
  N   N5        1.0  0.81491  0.13698  0.25045  1.0000
  N   N6        1.0  0.82996  0.17389  0.25162  1.0000
  N   N7        1.0  0.91456  0.76082  0.82898  1.0000
  N   N8        1.0  0.87755  0.75232  0.84634  1.0000
  N   N9        1.0  0.78248  0.82622  0.83312  1.0000
  N   N10       1.0  0.78419  0.85428  0.80598  1.0000
  N   N11       1.0  0.88297  0.85947  0.73511  1.0000
  N   N12       1.0  0.91854  0.84074  0.74507  1.0000
  N   N13       1.0  0.12351  0.24099  0.83877  1.0000
  N   N14       1.0  0.15079  0.24452  0.86583  1.0000
  N   N15       1.0  0.24275  0.16590  0.87511  1.0000
  N   N16       1.0  0.25048  0.13727  0.84938  1.0000
  N   N17       1.0  0.18184  0.13656  0.75866  1.0000
  N   N18       1.0  0.15004  0.16340  0.75559  1.0000
  N   N19       1.0  0.12272  0.75298  0.18302  1.0000
  N   N20       1.0  0.15870  0.74429  0.16319  1.0000
  N   N21       1.0  0.24545  0.82399  0.15564  1.0000
  N   N22       1.0  0.24272  0.85643  0.17743  1.0000
  N   N23       1.0  0.14952  0.86948  0.25413  1.0000
  N   N24       1.0  0.11581  0.84698  0.25109  1.0000
