data_image0
_chemical_formula_structural       Cu12H72C135N24
_chemical_formula_sum              "Cu12 H72 C135 N24"
_cell_length_a       31.1145
_cell_length_b       31.4169
_cell_length_c       32.0151
_cell_angle_alpha    90.1954
_cell_angle_beta     89.8529
_cell_angle_gamma    89.5246

_symmetry_space_group_name_H-M    "P 1"
_symmetry_int_tables_number       1

loop_
  _symmetry_equiv_pos_as_xyz
  'x, y, z'

loop_
  _atom_site_type_symbol
  _atom_site_label
  _atom_site_symmetry_multiplicity
  _atom_site_fract_x
  _atom_site_fract_y
  _atom_site_fract_z
  _atom_site_occupancy
  Cu  Cu1       1.0  0.77452  0.84964  0.77029  1.0000
  Cu  Cu2       1.0  0.76225  0.76583  0.83311  1.0000
  Cu  Cu3       1.0  0.85697  0.78187  0.77770  1.0000
  Cu  Cu4       1.0  0.22411  0.15114  0.77100  1.0000
  Cu  Cu5       1.0  0.23397  0.23680  0.83243  1.0000
  Cu  Cu6       1.0  0.13923  0.21599  0.77913  1.0000
  Cu  Cu7       1.0  0.77088  0.15567  0.23308  1.0000
  Cu  Cu8       1.0  0.76011  0.24089  0.17114  1.0000
  Cu  Cu9       1.0  0.85575  0.21925  0.22278  1.0000
  Cu  Cu10      1.0  0.23229  0.84184  0.22896  1.0000
  Cu  Cu11      1.0  0.23394  0.76817  0.15263  1.0000
  Cu  Cu12      1.0  0.15608  0.76673  0.23033  1.0000
  H   H1        1.0  0.69854  0.90994  0.80855  1.0000
  H   H2        1.0  0.68316  0.80184  0.88843  1.0000
  H   H3        1.0  0.90923  0.81042  0.69589  1.0000
  H   H4        1.0  0.80310  0.89745  0.68450  1.0000
  H   H5        1.0  0.79354  0.68208  0.88337  1.0000
  H   H6        1.0  0.91075  0.70340  0.81679  1.0000
  H   H7        1.0  0.30273  0.09431  0.80932  1.0000
  H   H8        1.0  0.31525  0.20472  0.88699  1.0000
  H   H9        1.0  0.08759  0.18476  0.69798  1.0000
  H   H10       1.0  0.19672  0.10140  0.68570  1.0000
  H   H11       1.0  0.20027  0.32047  0.88202  1.0000
  H   H12       1.0  0.08294  0.29309  0.81830  1.0000
  H   H13       1.0  0.69465  0.09818  0.19347  1.0000
  H   H14       1.0  0.68033  0.20780  0.11547  1.0000
  H   H15       1.0  0.91016  0.18663  0.30170  1.0000
  H   H16       1.0  0.80134  0.10524  0.31657  1.0000
  H   H17       1.0  0.79198  0.32481  0.12221  1.0000
  H   H18       1.0  0.91061  0.29628  0.18380  1.0000
  H   H19       1.0  0.31269  0.89881  0.19642  1.0000
  H   H20       1.0  0.31387  0.80453  0.09975  1.0000
  H   H21       1.0  0.10304  0.80020  0.31042  1.0000
  H   H22       1.0  0.19946  0.89666  0.30933  1.0000
  H   H23       1.0  0.19857  0.68822  0.09921  1.0000
  H   H24       1.0  0.10235  0.68670  0.19462  1.0000
  H   H25       1.0  0.59358  0.98360  0.88336  1.0000
  H   H26       1.0  0.64637  0.94455  0.84204  1.0000
  H   H27       1.0  0.63145  0.83586  0.92399  1.0000
  H   H28       1.0  0.57868  0.87593  0.96465  1.0000
  H   H29       1.0  0.41234  0.12690  0.97212  1.0000
  H   H30       1.0  0.35845  0.16545  0.93123  1.0000
  H   H31       1.0  0.36701  0.06860  0.83509  1.0000
  H   H32       1.0  0.42048  0.03029  0.87664  1.0000
  H   H33       1.0  0.57932  0.03263  0.12511  1.0000
  H   H34       1.0  0.63114  0.07191  0.16722  1.0000
  H   H35       1.0  0.63905  0.16743  0.07053  1.0000
  H   H36       1.0  0.58678  0.12791  0.02906  1.0000
  H   H37       1.0  0.42851  0.87435  0.03389  1.0000
  H   H38       1.0  0.37632  0.83300  0.07363  1.0000
  H   H39       1.0  0.35644  0.94040  0.15665  1.0000
  H   H40       1.0  0.40900  0.98098  0.11683  1.0000
  H   H41       1.0  0.87298  0.96564  0.57528  1.0000
  H   H42       1.0  0.83408  0.92808  0.62964  1.0000
  H   H43       1.0  0.94085  0.83905  0.64053  1.0000
  H   H44       1.0  0.97877  0.87736  0.58614  1.0000
  H   H45       1.0  0.03067  0.87215  0.41672  1.0000
  H   H46       1.0  0.06996  0.83210  0.36374  1.0000
  H   H47       1.0  0.16753  0.93003  0.36237  1.0000
  H   H48       1.0  0.12737  0.96924  0.41537  1.0000
  H   H49       1.0  0.02071  0.11574  0.58786  1.0000
  H   H50       1.0  0.05715  0.15513  0.64250  1.0000
  H   H51       1.0  0.16642  0.06903  0.63132  1.0000
  H   H52       1.0  0.12896  0.03033  0.57667  1.0000
  H   H53       1.0  0.98082  0.11534  0.40847  1.0000
  H   H54       1.0  0.94270  0.15570  0.35543  1.0000
  H   H55       1.0  0.83325  0.07219  0.36971  1.0000
  H   H56       1.0  0.87239  0.03249  0.42271  1.0000
  H   H57       1.0  0.86965  0.58475  0.96991  1.0000
  H   H58       1.0  0.83176  0.63900  0.92912  1.0000
  H   H59       1.0  0.93572  0.63789  0.83912  1.0000
  H   H60       1.0  0.97329  0.58409  0.88052  1.0000
  H   H61       1.0  0.86815  0.42134  0.03573  1.0000
  H   H62       1.0  0.82998  0.36762  0.07634  1.0000
  H   H63       1.0  0.93668  0.36138  0.16254  1.0000
  H   H64       1.0  0.97450  0.41469  0.12132  1.0000
  H   H65       1.0  0.03537  0.57145  0.12821  1.0000
  H   H66       1.0  0.07675  0.62364  0.16778  1.0000
  H   H67       1.0  0.15618  0.64553  0.05892  1.0000
  H   H68       1.0  0.11477  0.59294  0.02010  1.0000
  H   H69       1.0  0.12279  0.41806  0.96777  1.0000
  H   H70       1.0  0.16167  0.36385  0.92732  1.0000
  H   H71       1.0  0.05537  0.35765  0.84071  1.0000
  H   H72       1.0  0.01682  0.41147  0.88181  1.0000
  C   C1        1.0  0.70073  0.87919  0.82339  1.0000
  C   C2        1.0  0.67648  0.86448  0.85687  1.0000
  C   C3        1.0  0.69282  0.82387  0.86440  1.0000
  C   C4        1.0  0.87906  0.82738  0.69918  1.0000
  C   C5        1.0  0.86348  0.86054  0.67467  1.0000
  C   C6        1.0  0.82461  0.87193  0.69342  1.0000
  C   C7        1.0  0.81791  0.69371  0.86228  1.0000
  C   C8        1.0  0.85944  0.67810  0.85740  1.0000
  C   C9        1.0  0.87801  0.70462  0.82808  1.0000
  C   C10       1.0  0.29958  0.12556  0.82325  1.0000
  C   C11       1.0  0.32352  0.14199  0.85596  1.0000
  C   C12       1.0  0.30585  0.18200  0.86336  1.0000
  C   C13       1.0  0.11832  0.16883  0.70106  1.0000
  C   C14       1.0  0.13498  0.13603  0.67644  1.0000
  C   C15       1.0  0.17428  0.12615  0.69487  1.0000
  C   C16       1.0  0.17602  0.30740  0.86168  1.0000
  C   C17       1.0  0.13383  0.32129  0.85748  1.0000
  C   C18       1.0  0.11585  0.29338  0.82897  1.0000
  C   C19       1.0  0.69715  0.12934  0.17955  1.0000
  C   C20       1.0  0.67325  0.14526  0.14649  1.0000
  C   C21       1.0  0.68998  0.18538  0.13928  1.0000
  C   C22       1.0  0.87927  0.17135  0.29950  1.0000
  C   C23       1.0  0.86343  0.13868  0.32422  1.0000
  C   C24       1.0  0.82345  0.12971  0.30705  1.0000
  C   C25       1.0  0.81669  0.31145  0.14201  1.0000
  C   C26       1.0  0.85879  0.32507  0.14581  1.0000
  C   C27       1.0  0.87752  0.29682  0.17363  1.0000
  C   C28       1.0  0.30680  0.87097  0.17746  1.0000
  C   C29       1.0  0.32791  0.85939  0.14089  1.0000
  C   C30       1.0  0.30766  0.82247  0.12802  1.0000
  C   C31       1.0  0.13108  0.81921  0.30420  1.0000
  C   C32       1.0  0.14365  0.85612  0.32473  1.0000
  C   C33       1.0  0.18052  0.86861  0.30357  1.0000
  C   C34       1.0  0.17989  0.69416  0.12713  1.0000
  C   C35       1.0  0.14311  0.67304  0.13954  1.0000
  C   C36       1.0  0.13073  0.69316  0.17628  1.0000
  C   C37       1.0  0.99588  0.50006  0.00119  1.0000
  C   C38       1.0  0.50124  0.00444  0.00035  1.0000
  C   C39       1.0  0.00158  0.99688  0.49812  1.0000
  C   C40       1.0  0.58256  0.93250  0.92685  1.0000
  C   C41       1.0  0.60174  0.95122  0.89203  1.0000
  C   C42       1.0  0.63217  0.92858  0.86847  1.0000
  C   C43       1.0  0.64421  0.88665  0.87944  1.0000
  C   C44       1.0  0.62379  0.86791  0.91421  1.0000
  C   C45       1.0  0.59337  0.89073  0.93768  1.0000
  C   C46       1.0  0.55309  0.95685  0.95230  1.0000
  C   C47       1.0  0.52922  0.97796  0.97388  1.0000
  C   C48       1.0  0.42011  0.07597  0.92720  1.0000
  C   C49       1.0  0.40270  0.11434  0.94204  1.0000
  C   C50       1.0  0.37194  0.13633  0.91852  1.0000
  C   C51       1.0  0.35803  0.12009  0.87983  1.0000
  C   C52       1.0  0.37646  0.08189  0.86486  1.0000
  C   C53       1.0  0.40721  0.06000  0.88842  1.0000
  C   C54       1.0  0.44962  0.05191  0.95255  1.0000
  C   C55       1.0  0.47345  0.03093  0.97403  1.0000
  C   C56       1.0  0.57947  0.07756  0.07422  1.0000
  C   C57       1.0  0.59208  0.06226  0.11332  1.0000
  C   C58       1.0  0.62190  0.08470  0.13720  1.0000
  C   C59       1.0  0.63966  0.12281  0.12224  1.0000
  C   C60       1.0  0.62603  0.13840  0.08323  1.0000
  C   C61       1.0  0.59621  0.11585  0.05938  1.0000
  C   C62       1.0  0.55096  0.05292  0.04860  1.0000
  C   C63       1.0  0.52799  0.03146  0.02691  1.0000
  C   C64       1.0  0.42235  0.93048  0.07263  1.0000
  C   C65       1.0  0.41303  0.88865  0.06092  1.0000
  C   C66       1.0  0.38300  0.86518  0.08361  1.0000
  C   C67       1.0  0.36173  0.88332  0.11833  1.0000
  C   C68       1.0  0.37210  0.92516  0.13032  1.0000
  C   C69       1.0  0.40212  0.94854  0.10757  1.0000
  C   C70       1.0  0.45111  0.95560  0.04776  1.0000
  C   C71       1.0  0.47427  0.97730  0.02653  1.0000
  C   C72       1.0  0.92855  0.92414  0.57703  1.0000
  C   C73       1.0  0.88753  0.93771  0.58932  1.0000
  C   C74       1.0  0.86542  0.91604  0.62071  1.0000
  C   C75       1.0  0.88419  0.88047  0.64071  1.0000
  C   C76       1.0  0.92503  0.86636  0.62682  1.0000
  C   C77       1.0  0.94697  0.88812  0.59542  1.0000
  C   C78       1.0  0.95300  0.94878  0.54771  1.0000
  C   C79       1.0  0.97443  0.97013  0.52451  1.0000
  C   C80       1.0  0.07626  0.92345  0.41964  1.0000
  C   C81       1.0  0.06078  0.88454  0.40503  1.0000
  C   C82       1.0  0.08348  0.86175  0.37444  1.0000
  C   C83       1.0  0.12214  0.87766  0.35760  1.0000
  C   C84       1.0  0.13794  0.91642  0.37368  1.0000
  C   C85       1.0  0.11510  0.93908  0.40427  1.0000
  C   C86       1.0  0.05105  0.94847  0.44853  1.0000
  C   C87       1.0  0.02913  0.97003  0.47159  1.0000
  C   C88       1.0  0.07226  0.07032  0.57856  1.0000
  C   C89       1.0  0.05272  0.10583  0.59715  1.0000
  C   C90       1.0  0.07381  0.12822  0.62870  1.0000
  C   C91       1.0  0.11496  0.11531  0.64252  1.0000
  C   C92       1.0  0.13482  0.08019  0.62240  1.0000
  C   C93       1.0  0.11353  0.05787  0.59086  1.0000
  C   C94       1.0  0.04878  0.04522  0.54883  1.0000
  C   C95       1.0  0.02804  0.02366  0.52519  1.0000
  C   C96       1.0  0.92929  0.07111  0.41916  1.0000
  C   C97       1.0  0.94843  0.10618  0.40017  1.0000
  C   C98       1.0  0.92636  0.12915  0.36957  1.0000
  C   C99       1.0  0.88461  0.11728  0.35712  1.0000
  C   C100      1.0  0.86526  0.08255  0.37758  1.0000
  C   C101      1.0  0.88751  0.05965  0.40817  1.0000
  C   C102      1.0  0.95350  0.04562  0.44816  1.0000
  C   C103      1.0  0.97472  0.02382  0.47135  1.0000
  C   C104      1.0  0.92406  0.58070  0.92803  1.0000
  C   C105      1.0  0.88390  0.59607  0.94115  1.0000
  C   C106      1.0  0.86230  0.62703  0.91770  1.0000
  C   C107      1.0  0.88076  0.64318  0.88087  1.0000
  C   C108      1.0  0.92073  0.62672  0.86750  1.0000
  C   C109      1.0  0.94219  0.59576  0.89096  1.0000
  C   C110      1.0  0.94784  0.55122  0.95354  1.0000
  C   C111      1.0  0.96891  0.52753  0.97503  1.0000
  C   C112      1.0  0.92392  0.42172  0.07574  1.0000
  C   C113      1.0  0.88293  0.40856  0.06366  1.0000
  C   C114      1.0  0.86118  0.37790  0.08700  1.0000
  C   C115      1.0  0.88032  0.35980  0.12266  1.0000
  C   C116      1.0  0.92113  0.37409  0.13505  1.0000
  C   C117      1.0  0.94275  0.40476  0.11171  1.0000
  C   C118      1.0  0.94784  0.45064  0.05004  1.0000
  C   C119      1.0  0.96897  0.47367  0.02816  1.0000
  C   C120      1.0  0.07224  0.57859  0.07146  1.0000
  C   C121      1.0  0.06201  0.58736  0.11319  1.0000
  C   C122      1.0  0.08561  0.61739  0.13564  1.0000
  C   C123      1.0  0.11977  0.63921  0.11658  1.0000
  C   C124      1.0  0.13035  0.62939  0.07483  1.0000
  C   C125      1.0  0.10668  0.59937  0.05246  1.0000
  C   C126      1.0  0.04616  0.54991  0.04750  1.0000
  C   C127      1.0  0.02375  0.52684  0.02687  1.0000
  C   C128      1.0  0.06715  0.41848  0.92758  1.0000
  C   C129      1.0  0.10821  0.40512  0.93983  1.0000
  C   C130      1.0  0.13038  0.37418  0.91656  1.0000
  C   C131      1.0  0.11162  0.35603  0.88077  1.0000
  C   C132      1.0  0.07066  0.37041  0.86828  1.0000
  C   C133      1.0  0.04862  0.40136  0.89157  1.0000
  C   C134      1.0  0.04312  0.44817  0.95295  1.0000
  C   C135      1.0  0.02219  0.47213  0.97455  1.0000
  N   N1        1.0  0.72496  0.81596  0.83720  1.0000
  N   N2        1.0  0.72955  0.84894  0.81254  1.0000
  N   N3        1.0  0.81852  0.84708  0.72706  1.0000
  N   N4        1.0  0.85103  0.82040  0.73039  1.0000
  N   N5        1.0  0.84892  0.73427  0.81674  1.0000
  N   N6        1.0  0.81270  0.72762  0.83712  1.0000
  N   N7        1.0  0.27315  0.18819  0.83656  1.0000
  N   N8        1.0  0.26952  0.15450  0.81243  1.0000
  N   N9        1.0  0.17962  0.15150  0.72840  1.0000
  N   N10       1.0  0.14620  0.17705  0.73200  1.0000
  N   N11       1.0  0.14591  0.26461  0.81744  1.0000
  N   N12       1.0  0.18215  0.27313  0.83694  1.0000
  N   N13       1.0  0.72211  0.19209  0.16652  1.0000
  N   N14       1.0  0.72627  0.15864  0.19074  1.0000
  N   N15       1.0  0.81692  0.15544  0.27410  1.0000
  N   N16       1.0  0.85029  0.18035  0.26967  1.0000
  N   N17       1.0  0.84798  0.26811  0.18515  1.0000
  N   N18       1.0  0.81134  0.27700  0.16633  1.0000
  N   N19       1.0  0.27635  0.81334  0.15555  1.0000
  N   N20       1.0  0.27583  0.84233  0.18521  1.0000
  N   N21       1.0  0.18846  0.84072  0.27241  1.0000
  N   N22       1.0  0.15883  0.81121  0.27279  1.0000
  N   N23       1.0  0.15872  0.72451  0.18465  1.0000
  N   N24       1.0  0.18831  0.72509  0.15508  1.0000
