data_image0
_chemical_formula_structural       Cu12H72C132N28
_chemical_formula_sum              "Cu12 H72 C132 N28"
_cell_length_a       36.6849
_cell_length_b       37.1388
_cell_length_c       37.1305
_cell_angle_alpha    89.9981
_cell_angle_beta     90.011
_cell_angle_gamma    89.9978

_symmetry_space_group_name_H-M    "P 1"
_symmetry_int_tables_number       1

loop_
  _symmetry_equiv_pos_as_xyz
  'x, y, z'

loop_
  _atom_site_type_symbol
  _atom_site_label
  _atom_site_symmetry_multiplicity
  _atom_site_fract_x
  _atom_site_fract_y
  _atom_site_fract_z
  _atom_site_occupancy
  Cu  Cu1       1.0  0.87623  0.91108  0.84165  1.0000
  Cu  Cu2       1.0  0.83657  0.87421  0.91455  1.0000
  Cu  Cu3       1.0  0.91358  0.83594  0.87628  1.0000
  Cu  Cu4       1.0  0.12609  0.59154  0.33898  1.0000
  Cu  Cu5       1.0  0.16344  0.62620  0.41413  1.0000
  Cu  Cu6       1.0  0.08646  0.66449  0.37576  1.0000
  Cu  Cu7       1.0  0.37619  0.08884  0.65844  1.0000
  Cu  Cu8       1.0  0.33654  0.12566  0.58549  1.0000
  Cu  Cu9       1.0  0.41350  0.16400  0.62382  1.0000
  Cu  Cu10      1.0  0.62489  0.40946  0.15990  1.0000
  Cu  Cu11      1.0  0.66328  0.37386  0.08583  1.0000
  Cu  Cu12      1.0  0.58628  0.33555  0.12422  1.0000
  H   H1        1.0  0.81950  0.97827  0.83042  1.0000
  H   H2        1.0  0.76976  0.93085  0.92311  1.0000
  H   H3        1.0  0.97954  0.82653  0.81880  1.0000
  H   H4        1.0  0.93261  0.92198  0.77413  1.0000
  H   H5        1.0  0.82735  0.81682  0.98025  1.0000
  H   H6        1.0  0.92223  0.76968  0.93311  1.0000
  H   H7        1.0  0.18248  0.52401  0.32815  1.0000
  H   H8        1.0  0.22939  0.56873  0.42360  1.0000
  H   H9        1.0  0.01967  0.67303  0.31907  1.0000
  H   H10       1.0  0.06936  0.58025  0.27178  1.0000
  H   H11       1.0  0.17207  0.68307  0.48035  1.0000
  H   H12       1.0  0.07726  0.73024  0.43308  1.0000
  H   H13       1.0  0.31949  0.02163  0.66966  1.0000
  H   H14       1.0  0.26976  0.06899  0.57691  1.0000
  H   H15       1.0  0.47944  0.17345  0.68134  1.0000
  H   H16       1.0  0.43257  0.07798  0.72599  1.0000
  H   H17       1.0  0.32732  0.18302  0.51976  1.0000
  H   H18       1.0  0.42212  0.23025  0.56698  1.0000
  H   H19       1.0  0.68150  0.47687  0.17106  1.0000
  H   H20       1.0  0.72965  0.43094  0.07682  1.0000
  H   H21       1.0  0.51996  0.32660  0.18136  1.0000
  H   H22       1.0  0.56842  0.42062  0.22742  1.0000
  H   H23       1.0  0.67206  0.31681  0.01979  1.0000
  H   H24       1.0  0.57728  0.26963  0.06705  1.0000
  H   H25       1.0  0.66241  0.00634  0.86251  1.0000
  H   H26       1.0  0.61525  0.05340  0.86216  1.0000
  H   H27       1.0  0.69679  0.13311  0.88777  1.0000
  H   H28       1.0  0.74376  0.08589  0.88852  1.0000
  H   H29       1.0  0.25599  0.41468  0.38821  1.0000
  H   H30       1.0  0.30274  0.36723  0.38766  1.0000
  H   H31       1.0  0.38473  0.44654  0.36225  1.0000
  H   H32       1.0  0.33780  0.49382  0.36239  1.0000
  H   H33       1.0  0.16243  0.99354  0.63755  1.0000
  H   H34       1.0  0.11528  0.94648  0.63794  1.0000
  H   H35       1.0  0.19679  0.86675  0.61237  1.0000
  H   H36       1.0  0.24377  0.91397  0.61158  1.0000
  H   H37       1.0  0.80238  0.54079  0.06722  1.0000
  H   H38       1.0  0.84945  0.58792  0.06753  1.0000
  H   H39       1.0  0.83796  0.59818  0.18272  1.0000
  H   H40       1.0  0.79121  0.55073  0.18231  1.0000
  H   H41       1.0  0.00606  0.86197  0.66474  1.0000
  H   H42       1.0  0.05279  0.86248  0.61727  1.0000
  H   H43       1.0  0.13484  0.88785  0.69657  1.0000
  H   H44       1.0  0.08794  0.88774  0.74387  1.0000
  H   H45       1.0  0.49365  0.36164  0.33594  1.0000
  H   H46       1.0  0.44675  0.36235  0.38323  1.0000
  H   H47       1.0  0.36509  0.38794  0.30360  1.0000
  H   H48       1.0  0.41218  0.38763  0.25648  1.0000
  H   H49       1.0  0.94724  0.68288  0.20871  1.0000
  H   H50       1.0  0.90004  0.68235  0.16168  1.0000
  H   H51       1.0  0.91179  0.56719  0.15167  1.0000
  H   H52       1.0  0.95866  0.56782  0.19902  1.0000
  H   H53       1.0  0.50604  0.13797  0.83541  1.0000
  H   H54       1.0  0.55278  0.13741  0.88287  1.0000
  H   H55       1.0  0.63480  0.11206  0.80356  1.0000
  H   H56       1.0  0.58787  0.11221  0.75626  1.0000
  H   H57       1.0  0.81631  0.70660  0.05190  1.0000
  H   H58       1.0  0.81631  0.65997  0.09891  1.0000
  H   H59       1.0  0.93318  0.65080  0.08966  1.0000
  H   H60       1.0  0.93308  0.69776  0.04297  1.0000
  H   H61       1.0  0.38653  0.25747  0.41240  1.0000
  H   H62       1.0  0.38640  0.30421  0.36549  1.0000
  H   H63       1.0  0.36296  0.38473  0.44598  1.0000
  H   H64       1.0  0.36268  0.33782  0.49272  1.0000
  H   H65       1.0  0.63657  0.16218  0.99267  1.0000
  H   H66       1.0  0.63646  0.11528  0.94593  1.0000
  H   H67       1.0  0.61295  0.19574  0.86539  1.0000
  H   H68       1.0  0.61265  0.24248  0.91230  1.0000
  H   H69       1.0  0.11264  0.75737  0.58790  1.0000
  H   H70       1.0  0.11297  0.80413  0.63479  1.0000
  H   H71       1.0  0.13645  0.88455  0.55421  1.0000
  H   H72       1.0  0.13653  0.83763  0.50749  1.0000
  C   C1        1.0  0.81323  0.96099  0.85303  1.0000
  C   C2        1.0  0.78447  0.96471  0.87660  1.0000
  C   C3        1.0  0.78761  0.93665  0.90067  1.0000
  C   C4        1.0  0.96245  0.84972  0.81374  1.0000
  C   C5        1.0  0.96616  0.87434  0.78624  1.0000
  C   C6        1.0  0.93829  0.89878  0.79082  1.0000
  C   C7        1.0  0.85039  0.81117  0.96299  1.0000
  C   C8        1.0  0.87472  0.78317  0.96661  1.0000
  C   C9        1.0  0.89918  0.78693  0.93875  1.0000
  C   C10       1.0  0.18814  0.54071  0.35135  1.0000
  C   C11       1.0  0.21601  0.53614  0.37581  1.0000
  C   C12       1.0  0.21229  0.56365  0.40042  1.0000
  C   C13       1.0  0.03750  0.65057  0.31330  1.0000
  C   C14       1.0  0.03435  0.62647  0.28527  1.0000
  C   C15       1.0  0.06310  0.60289  0.28903  1.0000
  C   C16       1.0  0.14904  0.68871  0.46307  1.0000
  C   C17       1.0  0.12459  0.71660  0.46679  1.0000
  C   C18       1.0  0.10028  0.71297  0.43877  1.0000
  C   C19       1.0  0.31322  0.03889  0.64704  1.0000
  C   C20       1.0  0.28447  0.03515  0.62344  1.0000
  C   C21       1.0  0.28761  0.06320  0.59937  1.0000
  C   C22       1.0  0.46236  0.15026  0.68640  1.0000
  C   C23       1.0  0.46609  0.12563  0.71390  1.0000
  C   C24       1.0  0.43823  0.10118  0.70930  1.0000
  C   C25       1.0  0.35034  0.18869  0.53705  1.0000
  C   C26       1.0  0.37464  0.21671  0.53344  1.0000
  C   C27       1.0  0.39909  0.21298  0.56133  1.0000
  C   C28       1.0  0.68743  0.45991  0.14813  1.0000
  C   C29       1.0  0.71570  0.46408  0.12407  1.0000
  C   C30       1.0  0.71223  0.43634  0.09968  1.0000
  C   C31       1.0  0.53746  0.34938  0.18680  1.0000
  C   C32       1.0  0.53409  0.37372  0.21460  1.0000
  C   C33       1.0  0.56242  0.39772  0.21044  1.0000
  C   C34       1.0  0.64904  0.31115  0.03707  1.0000
  C   C35       1.0  0.62465  0.28323  0.03340  1.0000
  C   C36       1.0  0.60031  0.28689  0.06138  1.0000
  C   C37       1.0  0.70631  0.04288  0.87555  1.0000
  C   C38       1.0  0.67002  0.03398  0.86805  1.0000
  C   C39       1.0  0.64325  0.06076  0.86774  1.0000
  C   C40       1.0  0.65248  0.09680  0.87493  1.0000
  C   C41       1.0  0.68901  0.10550  0.88242  1.0000
  C   C42       1.0  0.71575  0.07869  0.88273  1.0000
  C   C43       1.0  0.73386  0.01530  0.87590  1.0000
  C   C44       1.0  0.75695  0.99220  0.87621  1.0000
  C   C45       1.0  0.29368  0.45749  0.37533  1.0000
  C   C46       1.0  0.28406  0.42174  0.38252  1.0000
  C   C47       1.0  0.31067  0.39480  0.38232  1.0000
  C   C48       1.0  0.34726  0.40332  0.37493  1.0000
  C   C49       1.0  0.35668  0.43931  0.36774  1.0000
  C   C50       1.0  0.33004  0.46622  0.36794  1.0000
  C   C51       1.0  0.26627  0.48521  0.37551  1.0000
  C   C52       1.0  0.24333  0.50844  0.37565  1.0000
  C   C53       1.0  0.20632  0.95698  0.62452  1.0000
  C   C54       1.0  0.17004  0.96589  0.63203  1.0000
  C   C55       1.0  0.14326  0.93911  0.63236  1.0000
  C   C56       1.0  0.15250  0.90307  0.62519  1.0000
  C   C57       1.0  0.18901  0.89436  0.61769  1.0000
  C   C58       1.0  0.21576  0.92117  0.61736  1.0000
  C   C59       1.0  0.23387  0.98456  0.62416  1.0000
  C   C60       1.0  0.25695  0.00766  0.62384  1.0000
  C   C61       1.0  0.79358  0.54252  0.12474  1.0000
  C   C62       1.0  0.81008  0.55324  0.09248  1.0000
  C   C63       1.0  0.83675  0.58012  0.09267  1.0000
  C   C64       1.0  0.84723  0.59661  0.12515  1.0000
  C   C65       1.0  0.83051  0.58568  0.15743  1.0000
  C   C66       1.0  0.80385  0.55879  0.15720  1.0000
  C   C67       1.0  0.76612  0.51486  0.12452  1.0000
  C   C68       1.0  0.74311  0.49169  0.12432  1.0000
  C   C69       1.0  0.04379  0.87483  0.70755  1.0000
  C   C70       1.0  0.03414  0.86764  0.67179  1.0000
  C   C71       1.0  0.06074  0.86782  0.64484  1.0000
  C   C72       1.0  0.09734  0.87519  0.65336  1.0000
  C   C73       1.0  0.10679  0.88237  0.68935  1.0000
  C   C74       1.0  0.08016  0.88220  0.71627  1.0000
  C   C75       1.0  0.01640  0.87466  0.73529  1.0000
  C   C76       1.0  0.99346  0.87451  0.75853  1.0000
  C   C77       1.0  0.45613  0.37460  0.29297  1.0000
  C   C78       1.0  0.46562  0.36741  0.32877  1.0000
  C   C79       1.0  0.43892  0.36770  0.35563  1.0000
  C   C80       1.0  0.40238  0.37519  0.34696  1.0000
  C   C81       1.0  0.39309  0.38238  0.31093  1.0000
  C   C82       1.0  0.41983  0.38208  0.28411  1.0000
  C   C83       1.0  0.48364  0.37430  0.26534  1.0000
  C   C84       1.0  0.50667  0.37405  0.24219  1.0000
  C   C85       1.0  0.95617  0.62539  0.20710  1.0000
  C   C86       1.0  0.93956  0.65757  0.19634  1.0000
  C   C87       1.0  0.91282  0.65727  0.16951  1.0000
  C   C88       1.0  0.90238  0.62473  0.15312  1.0000
  C   C89       1.0  0.91920  0.59252  0.16410  1.0000
  C   C90       1.0  0.94593  0.59287  0.19094  1.0000
  C   C91       1.0  0.98373  0.62574  0.23468  1.0000
  C   C92       1.0  0.00682  0.62606  0.25778  1.0000
  C   C93       1.0  0.54375  0.12511  0.79259  1.0000
  C   C94       1.0  0.53411  0.13228  0.82835  1.0000
  C   C95       1.0  0.56072  0.13208  0.85530  1.0000
  C   C96       1.0  0.59731  0.12470  0.84678  1.0000
  C   C97       1.0  0.60675  0.11754  0.81079  1.0000
  C   C98       1.0  0.58011  0.11774  0.78386  1.0000
  C   C99       1.0  0.51634  0.12531  0.76485  1.0000
  C   C100      1.0  0.49340  0.12546  0.74161  1.0000
  C   C101      1.0  0.87469  0.70539  0.04423  1.0000
  C   C102      1.0  0.84188  0.69449  0.06008  1.0000
  C   C103      1.0  0.84188  0.66789  0.08672  1.0000
  C   C104      1.0  0.87475  0.65187  0.09781  1.0000
  C   C105      1.0  0.90758  0.66296  0.08173  1.0000
  C   C106      1.0  0.90753  0.68957  0.05510  1.0000
  C   C107      1.0  0.87467  0.73281  0.01684  1.0000
  C   C108      1.0  0.87468  0.75578  0.99391  1.0000
  C   C109      1.0  0.37460  0.29444  0.45577  1.0000
  C   C110      1.0  0.38135  0.28522  0.41983  1.0000
  C   C111      1.0  0.38140  0.31182  0.39319  1.0000
  C   C112      1.0  0.37469  0.34799  0.40221  1.0000
  C   C113      1.0  0.36792  0.35701  0.43837  1.0000
  C   C114      1.0  0.36788  0.33038  0.46498  1.0000
  C   C115      1.0  0.37459  0.26704  0.48317  1.0000
  C   C116      1.0  0.37460  0.24408  0.50612  1.0000
  C   C117      1.0  0.62460  0.20554  0.95570  1.0000
  C   C118      1.0  0.63138  0.16961  0.96492  1.0000
  C   C119      1.0  0.63144  0.14298  0.93832  1.0000
  C   C120      1.0  0.62472  0.15199  0.90214  1.0000
  C   C121      1.0  0.61792  0.18814  0.89311  1.0000
  C   C122      1.0  0.61787  0.21474  0.91975  1.0000
  C   C123      1.0  0.62460  0.23294  0.98309  1.0000
  C   C124      1.0  0.62462  0.25590  0.00604  1.0000
  C   C125      1.0  0.12457  0.79429  0.54449  1.0000
  C   C126      1.0  0.11785  0.78510  0.58044  1.0000
  C   C127      1.0  0.11792  0.81171  0.60707  1.0000
  C   C128      1.0  0.12472  0.84786  0.59802  1.0000
  C   C129      1.0  0.13142  0.85685  0.56183  1.0000
  C   C130      1.0  0.13135  0.83021  0.53524  1.0000
  C   C131      1.0  0.12455  0.76687  0.51710  1.0000
  C   C132      1.0  0.12456  0.74392  0.49415  1.0000
  N   N1        1.0  0.37477  0.37550  0.37470  1.0000
  N   N2        1.0  0.62483  0.12449  0.87462  1.0000
  N   N3        1.0  0.87479  0.62440  0.12536  1.0000
  N   N4        1.0  0.12484  0.87538  0.62552  1.0000
  N   N5        1.0  0.81717  0.91721  0.89149  1.0000
  N   N6        1.0  0.83254  0.93177  0.86298  1.0000
  N   N7        1.0  0.91894  0.88881  0.82002  1.0000
  N   N8        1.0  0.93342  0.85942  0.83370  1.0000
  N   N9        1.0  0.88956  0.81613  0.91940  1.0000
  N   N10       1.0  0.86021  0.83071  0.93398  1.0000
  N   N11       1.0  0.18326  0.58361  0.39069  1.0000
  N   N12       1.0  0.16879  0.56991  0.36130  1.0000
  N   N13       1.0  0.08242  0.61286  0.31825  1.0000
  N   N14       1.0  0.06706  0.64139  0.33277  1.0000
  N   N15       1.0  0.11009  0.68394  0.41926  1.0000
  N   N16       1.0  0.13942  0.66935  0.43388  1.0000
  N   N17       1.0  0.31716  0.08266  0.60856  1.0000
  N   N18       1.0  0.33253  0.06812  0.63709  1.0000
  N   N19       1.0  0.41888  0.11115  0.68010  1.0000
  N   N20       1.0  0.43334  0.14054  0.66642  1.0000
  N   N21       1.0  0.38948  0.18378  0.58067  1.0000
  N   N22       1.0  0.36016  0.16917  0.56607  1.0000
  N   N23       1.0  0.68294  0.41663  0.10915  1.0000
  N   N24       1.0  0.66807  0.43072  0.13816  1.0000
  N   N25       1.0  0.58172  0.38775  0.18120  1.0000
  N   N26       1.0  0.56675  0.35881  0.16708  1.0000
  N   N27       1.0  0.61005  0.31597  0.08083  1.0000
  N   N28       1.0  0.63938  0.33057  0.06621  1.0000
