data_image0
_chemical_formula_structural       Cu12H24C48N24
_chemical_formula_sum              "Cu12 H24 C48 N24"
_cell_length_a       33.1252
_cell_length_b       33.1644
_cell_length_c       33.1651
_cell_angle_alpha    109.675
_cell_angle_beta     109.325
_cell_angle_gamma    109.316

_symmetry_space_group_name_H-M    "P 1"
_symmetry_int_tables_number       1

loop_
  _symmetry_equiv_pos_as_xyz
  'x, y, z'

loop_
  _atom_site_type_symbol
  _atom_site_label
  _atom_site_symmetry_multiplicity
  _atom_site_fract_x
  _atom_site_fract_y
  _atom_site_fract_z
  _atom_site_occupancy
  Cu  Cu1       1.0  0.93016  0.96496  0.71434  1.0000
  Cu  Cu2       1.0  0.03594  0.96208  0.74918  1.0000
  Cu  Cu3       1.0  0.03578  0.07327  0.78670  1.0000
  Cu  Cu4       1.0  0.75170  0.53514  0.46573  1.0000
  Cu  Cu5       1.0  0.78702  0.53795  0.57412  1.0000
  Cu  Cu6       1.0  0.71345  0.42678  0.46292  1.0000
  Cu  Cu7       1.0  0.56926  0.28462  0.03451  1.0000
  Cu  Cu8       1.0  0.46355  0.21285  0.92616  1.0000
  Cu  Cu9       1.0  0.46339  0.25050  0.03732  1.0000
  Cu  Cu10      1.0  0.75076  0.21601  0.78563  1.0000
  Cu  Cu11      1.0  0.71322  0.28705  0.75084  1.0000
  Cu  Cu12      1.0  0.78677  0.24925  0.71304  1.0000
  H   H1        1.0  0.85345  0.84522  0.64848  1.0000
  H   H2        1.0  0.98918  0.84310  0.69389  1.0000
  H   H3        1.0  0.98891  0.14555  0.79589  1.0000
  H   H4        1.0  0.85325  0.00806  0.70342  1.0000
  H   H5        1.0  0.15525  0.00891  0.80466  1.0000
  H   H6        1.0  0.15502  0.14555  0.85067  1.0000
  H   H7        1.0  0.80523  0.65499  0.50861  1.0000
  H   H8        1.0  0.84929  0.65686  0.64619  1.0000
  H   H9        1.0  0.64924  0.35472  0.34401  1.0000
  H   H10       1.0  0.69751  0.49223  0.34585  1.0000
  H   H11       1.0  0.79546  0.49098  0.64645  1.0000
  H   H12       1.0  0.70500  0.35441  0.50983  1.0000
  H   H13       1.0  0.64599  0.29548  0.99124  1.0000
  H   H14       1.0  0.51035  0.20391  0.85384  1.0000
  H   H15       1.0  0.51004  0.30635  0.15625  1.0000
  H   H16       1.0  0.64581  0.35075  0.15426  1.0000
  H   H17       1.0  0.34432  0.14877  0.85386  1.0000
  H   H18       1.0  0.34411  0.19498  0.99050  1.0000
  H   H19       1.0  0.69637  0.20492  0.85117  1.0000
  H   H20       1.0  0.64931  0.29558  0.80607  1.0000
  H   H21       1.0  0.84946  0.19279  0.70335  1.0000
  H   H22       1.0  0.80419  0.14950  0.79574  1.0000
  H   H23       1.0  0.70493  0.35118  0.69571  1.0000
  H   H24       1.0  0.79543  0.30477  0.64929  1.0000
  C   C1        1.0  0.89209  0.85586  0.66508  1.0000
  C   C2        1.0  0.91133  0.82459  0.66121  1.0000
  C   C3        1.0  0.96182  0.85469  0.68838  1.0000
  C   C4        1.0  0.96159  0.10671  0.77349  1.0000
  C   C5        1.0  0.91109  0.08640  0.74969  1.0000
  C   C6        1.0  0.89187  0.03596  0.72592  1.0000
  C   C7        1.0  0.14392  0.03647  0.81024  1.0000
  C   C8        1.0  0.17449  0.08690  0.83738  1.0000
  C   C9        1.0  0.14381  0.10674  0.83389  1.0000
  C   C10       1.0  0.81056  0.64432  0.53655  1.0000
  C   C11       1.0  0.83674  0.67548  0.58697  1.0000
  C   C12       1.0  0.83320  0.64536  0.60735  1.0000
  C   C13       1.0  0.66667  0.39356  0.35552  1.0000
  C   C14       1.0  0.66375  0.41389  0.32536  1.0000
  C   C15       1.0  0.69151  0.46431  0.35654  1.0000
  C   C16       1.0  0.77342  0.46345  0.60763  1.0000
  C   C17       1.0  0.75020  0.41302  0.58781  1.0000
  C   C18       1.0  0.72690  0.39322  0.53738  1.0000
  C   C19       1.0  0.60739  0.27318  0.96337  1.0000
  C   C20       1.0  0.58817  0.24967  0.91293  1.0000
  C   C21       1.0  0.53768  0.22609  0.89269  1.0000
  C   C22       1.0  0.53741  0.31156  0.14469  1.0000
  C   C23       1.0  0.58789  0.33862  0.17482  1.0000
  C   C24       1.0  0.60718  0.33437  0.14360  1.0000
  C   C25       1.0  0.35554  0.16564  0.89267  1.0000
  C   C26       1.0  0.32486  0.16217  0.91251  1.0000
  C   C27       1.0  0.35542  0.18940  0.96294  1.0000
  C   C28       1.0  0.69055  0.22706  0.83468  1.0000
  C   C29       1.0  0.66321  0.25024  0.83859  1.0000
  C   C30       1.0  0.66631  0.27366  0.81151  1.0000
  C   C31       1.0  0.83300  0.18789  0.72579  1.0000
  C   C32       1.0  0.83630  0.16101  0.74940  1.0000
  C   C33       1.0  0.80969  0.16568  0.77330  1.0000
  C   C34       1.0  0.72687  0.33424  0.69002  1.0000
  C   C35       1.0  0.75020  0.33768  0.66285  1.0000
  C   C36       1.0  0.77342  0.31038  0.66616  1.0000
  C   C37       1.0  0.86220  0.72708  0.61239  1.0000
  C   C38       1.0  0.88445  0.77158  0.63456  1.0000
  C   C39       1.0  0.63747  0.25001  0.86453  1.0000
  C   C40       1.0  0.61510  0.24987  0.88674  1.0000
  C   C41       1.0  0.86257  0.13415  0.74947  1.0000
  C   C42       1.0  0.88488  0.11188  0.74952  1.0000
  C   C43       1.0  0.61479  0.36545  0.22784  1.0000
  C   C44       1.0  0.63721  0.38774  0.27233  1.0000
  C   C45       1.0  0.27190  0.13562  0.88605  1.0000
  C   C46       1.0  0.22745  0.11338  0.86384  1.0000
  C   C47       1.0  0.75026  0.38652  0.61426  1.0000
  C   C48       1.0  0.75026  0.36424  0.63645  1.0000
  N   N1        1.0  0.97178  0.90188  0.70743  1.0000
  N   N2        1.0  0.93006  0.90265  0.69352  1.0000
  N   N3        1.0  0.92990  0.02711  0.73555  1.0000
  N   N4        1.0  0.97159  0.06946  0.76401  1.0000
  N   N5        1.0  0.09681  0.06926  0.80566  1.0000
  N   N6        1.0  0.09688  0.02697  0.79142  1.0000
  N   N7        1.0  0.80585  0.59820  0.57015  1.0000
  N   N8        1.0  0.79232  0.59752  0.52776  1.0000
  N   N9        1.0  0.71007  0.47313  0.40336  1.0000
  N   N10       1.0  0.69508  0.43075  0.40269  1.0000
  N   N11       1.0  0.73609  0.43072  0.52787  1.0000
  N   N12       1.0  0.76410  0.47301  0.57015  1.0000
  N   N13       1.0  0.52771  0.23541  0.92995  1.0000
  N   N14       1.0  0.56941  0.26361  0.97230  1.0000
  N   N15       1.0  0.56925  0.30584  0.09680  1.0000
  N   N16       1.0  0.52752  0.29221  0.09752  1.0000
  N   N17       1.0  0.40247  0.20827  0.97244  1.0000
  N   N18       1.0  0.40253  0.19395  0.93014  1.0000
  N   N19       1.0  0.69455  0.26457  0.79249  1.0000
  N   N20       1.0  0.70911  0.23671  0.80636  1.0000
  N   N21       1.0  0.79143  0.19432  0.76396  1.0000
  N   N22       1.0  0.80538  0.20754  0.73548  1.0000
  N   N23       1.0  0.76406  0.29152  0.69432  1.0000
  N   N24       1.0  0.73604  0.30588  0.70869  1.0000
