data_image0
_chemical_formula_structural       Cu12H42C120N24
_chemical_formula_sum              "Cu12 H42 C120 N24"
_cell_length_a       33.9575
_cell_length_b       34.0372
_cell_length_c       35.1463
_cell_angle_alpha    89.9763
_cell_angle_beta     89.8747
_cell_angle_gamma    89.9179

_symmetry_space_group_name_H-M    "P 1"
_symmetry_int_tables_number       1

loop_
  _symmetry_equiv_pos_as_xyz
  'x, y, z'

loop_
  _atom_site_type_symbol
  _atom_site_label
  _atom_site_symmetry_multiplicity
  _atom_site_fract_x
  _atom_site_fract_y
  _atom_site_fract_z
  _atom_site_occupancy
  Cu  Cu1       1.0  0.21673  0.21775  0.15157  1.0000
  Cu  Cu2       1.0  0.21714  0.14640  0.21739  1.0000
  Cu  Cu3       1.0  0.14435  0.21729  0.21654  1.0000
  Cu  Cu4       1.0  0.78354  0.21868  0.84764  1.0000
  Cu  Cu5       1.0  0.78173  0.14811  0.78081  1.0000
  Cu  Cu6       1.0  0.85566  0.21806  0.78305  1.0000
  Cu  Cu7       1.0  0.21629  0.78174  0.84755  1.0000
  Cu  Cu8       1.0  0.21840  0.85209  0.78049  1.0000
  Cu  Cu9       1.0  0.14398  0.78263  0.78344  1.0000
  Cu  Cu10      1.0  0.78350  0.78160  0.15280  1.0000
  Cu  Cu11      1.0  0.78185  0.85236  0.21939  1.0000
  Cu  Cu12      1.0  0.85546  0.78185  0.21718  1.0000
  H   H1        1.0  0.29102  0.18614  0.10052  1.0000
  H   H2        1.0  0.29181  0.09681  0.18586  1.0000
  H   H3        1.0  0.09463  0.29177  0.18511  1.0000
  H   H4        1.0  0.18545  0.29222  0.10087  1.0000
  H   H5        1.0  0.18615  0.09866  0.29200  1.0000
  H   H6        1.0  0.09601  0.18607  0.29082  1.0000
  H   H7        1.0  0.71031  0.18653  0.90001  1.0000
  H   H8        1.0  0.70902  0.09748  0.81446  1.0000
  H   H9        1.0  0.90554  0.29240  0.81446  1.0000
  H   H10       1.0  0.81485  0.29278  0.89883  1.0000
  H   H11       1.0  0.81484  0.09906  0.70810  1.0000
  H   H12       1.0  0.90489  0.18632  0.70942  1.0000
  H   H13       1.0  0.28839  0.81485  0.90048  1.0000
  H   H14       1.0  0.29074  0.90306  0.81413  1.0000
  H   H15       1.0  0.09462  0.70781  0.81455  1.0000
  H   H16       1.0  0.18567  0.70671  0.89816  1.0000
  H   H17       1.0  0.18641  0.90017  0.70677  1.0000
  H   H18       1.0  0.09475  0.81468  0.71028  1.0000
  H   H19       1.0  0.71027  0.81400  0.10057  1.0000
  H   H20       1.0  0.70900  0.90308  0.18610  1.0000
  H   H21       1.0  0.90511  0.70709  0.18582  1.0000
  H   H22       1.0  0.81501  0.70751  0.10127  1.0000
  H   H23       1.0  0.81512  0.90148  0.29177  1.0000
  H   H24       1.0  0.90482  0.81359  0.29046  1.0000
  H   H25       1.0  0.95604  0.95438  0.47420  1.0000
  H   H26       1.0  0.04440  0.04515  0.47425  1.0000
  H   H27       1.0  0.04429  0.95424  0.52531  1.0000
  H   H28       1.0  0.95600  0.04535  0.52522  1.0000
  H   H29       1.0  0.00057  0.99979  0.36829  1.0000
  H   H30       1.0  0.00018  0.00011  0.63119  1.0000
  H   H31       1.0  0.47293  0.95778  0.95536  1.0000
  H   H32       1.0  0.47301  0.04329  0.04565  1.0000
  H   H33       1.0  0.52576  0.04313  0.95528  1.0000
  H   H34       1.0  0.52553  0.95772  0.04574  1.0000
  H   H35       1.0  0.36326  0.00076  0.00078  1.0000
  H   H36       1.0  0.63535  0.00023  0.00051  1.0000
  H   H37       1.0  0.95792  0.47356  0.95428  1.0000
  H   H38       1.0  0.04248  0.47339  0.04544  1.0000
  H   H39       1.0  0.95811  0.52607  0.04577  1.0000
  H   H40       1.0  0.04231  0.52602  0.95397  1.0000
  H   H41       1.0  0.00002  0.36401  0.00002  1.0000
  H   H42       1.0  0.00015  0.63550  0.99983  1.0000
  C   C1        1.0  0.28618  0.16989  0.12657  1.0000
  C   C2        1.0  0.30524  0.13596  0.13762  1.0000
  C   C3        1.0  0.28670  0.12391  0.17052  1.0000
  C   C4        1.0  0.12202  0.28694  0.17004  1.0000
  C   C5        1.0  0.13449  0.30579  0.13747  1.0000
  C   C6        1.0  0.16876  0.28706  0.12665  1.0000
  C   C7        1.0  0.16939  0.12502  0.28620  1.0000
  C   C8        1.0  0.13569  0.13706  0.30475  1.0000
  C   C9        1.0  0.12298  0.17001  0.28558  1.0000
  C   C10       1.0  0.71526  0.17011  0.87409  1.0000
  C   C11       1.0  0.69637  0.13608  0.86329  1.0000
  C   C12       1.0  0.71446  0.12431  0.83006  1.0000
  C   C13       1.0  0.87813  0.28768  0.82950  1.0000
  C   C14       1.0  0.86574  0.30640  0.86219  1.0000
  C   C15       1.0  0.83143  0.28777  0.87295  1.0000
  C   C16       1.0  0.83158  0.12539  0.71389  1.0000
  C   C17       1.0  0.86555  0.13711  0.69569  1.0000
  C   C18       1.0  0.87797  0.17025  0.71463  1.0000
  C   C19       1.0  0.28385  0.83094  0.87432  1.0000
  C   C20       1.0  0.30280  0.86492  0.86338  1.0000
  C   C21       1.0  0.28514  0.87634  0.82989  1.0000
  C   C22       1.0  0.12207  0.71245  0.82943  1.0000
  C   C23       1.0  0.13467  0.69335  0.86179  1.0000
  C   C24       1.0  0.16895  0.71198  0.87249  1.0000
  C   C25       1.0  0.16923  0.87424  0.71310  1.0000
  C   C26       1.0  0.13495  0.86287  0.69537  1.0000
  C   C27       1.0  0.12204  0.83025  0.71492  1.0000
  C   C28       1.0  0.71531  0.83048  0.12640  1.0000
  C   C29       1.0  0.69637  0.86452  0.13733  1.0000
  C   C30       1.0  0.71449  0.87626  0.17046  1.0000
  C   C31       1.0  0.87784  0.71206  0.17073  1.0000
  C   C32       1.0  0.86560  0.69349  0.13797  1.0000
  C   C33       1.0  0.83146  0.71239  0.12716  1.0000
  C   C34       1.0  0.83175  0.87500  0.28605  1.0000
  C   C35       1.0  0.86569  0.86315  0.30414  1.0000
  C   C36       1.0  0.87797  0.82982  0.28529  1.0000
  C   C37       1.0  0.97537  0.97415  0.45881  1.0000
  C   C38       1.0  0.00024  0.99974  0.47883  1.0000
  C   C39       1.0  0.02520  0.02536  0.45884  1.0000
  C   C40       1.0  0.02531  0.02530  0.41899  1.0000
  C   C41       1.0  0.00048  0.99977  0.39916  1.0000
  C   C42       1.0  0.97552  0.97422  0.41895  1.0000
  C   C43       1.0  0.00013  0.99977  0.52066  1.0000
  C   C44       1.0  0.02503  0.97413  0.54069  1.0000
  C   C45       1.0  0.02504  0.97434  0.58055  1.0000
  C   C46       1.0  0.00015  0.00003  0.60032  1.0000
  C   C47       1.0  0.97528  0.02560  0.58049  1.0000
  C   C48       1.0  0.97525  0.02554  0.54063  1.0000
  C   C49       1.0  0.45697  0.97647  0.97506  1.0000
  C   C50       1.0  0.47768  0.00051  0.00051  1.0000
  C   C51       1.0  0.45702  0.02466  0.02603  1.0000
  C   C52       1.0  0.41579  0.02486  0.02602  1.0000
  C   C53       1.0  0.39521  0.00071  0.00070  1.0000
  C   C54       1.0  0.41572  0.97649  0.97527  1.0000
  C   C55       1.0  0.52093  0.00039  0.00047  1.0000
  C   C56       1.0  0.54168  0.02443  0.97496  1.0000
  C   C57       1.0  0.58291  0.02451  0.97512  1.0000
  C   C58       1.0  0.60339  0.00028  0.00050  1.0000
  C   C59       1.0  0.58277  0.97612  0.02589  1.0000
  C   C60       1.0  0.54154  0.97632  0.02602  1.0000
  C   C61       1.0  0.97635  0.45758  0.97415  1.0000
  C   C62       1.0  0.00020  0.47817  0.99985  1.0000
  C   C63       1.0  0.02399  0.45749  0.02561  1.0000
  C   C64       1.0  0.02406  0.41635  0.02553  1.0000
  C   C65       1.0  0.00008  0.39589  0.99997  1.0000
  C   C66       1.0  0.97615  0.41643  0.97434  1.0000
  C   C67       1.0  0.00020  0.52134  0.99986  1.0000
  C   C68       1.0  0.97648  0.54199  0.02578  1.0000
  C   C69       1.0  0.97630  0.58314  0.02562  1.0000
  C   C70       1.0  0.00016  0.60363  0.99985  1.0000
  C   C71       1.0  0.02406  0.58311  0.97409  1.0000
  C   C72       1.0  0.02392  0.54197  0.97395  1.0000
  C   C73       1.0  0.33052  0.11430  0.11612  1.0000
  C   C74       1.0  0.35178  0.09449  0.09642  1.0000
  C   C75       1.0  0.37530  0.07067  0.07261  1.0000
  C   C76       1.0  0.39430  0.04995  0.05167  1.0000
  C   C77       1.0  0.66921  0.11352  0.88576  1.0000
  C   C78       1.0  0.64762  0.09390  0.90525  1.0000
  C   C79       1.0  0.62374  0.07025  0.92882  1.0000
  C   C80       1.0  0.60453  0.04958  0.94959  1.0000
  C   C81       1.0  0.32968  0.88767  0.88588  1.0000
  C   C82       1.0  0.35109  0.90736  0.90539  1.0000
  C   C83       1.0  0.37487  0.93099  0.92897  1.0000
  C   C84       1.0  0.39409  0.95155  0.94974  1.0000
  C   C85       1.0  0.66906  0.88706  0.11505  1.0000
  C   C86       1.0  0.64740  0.90671  0.09569  1.0000
  C   C87       1.0  0.62348  0.93037  0.07220  1.0000
  C   C88       1.0  0.60427  0.95103  0.05145  1.0000
  C   C89       1.0  0.11294  0.33107  0.11594  1.0000
  C   C90       1.0  0.09322  0.35233  0.09621  1.0000
  C   C91       1.0  0.06953  0.37584  0.07233  1.0000
  C   C92       1.0  0.04894  0.39484  0.05132  1.0000
  C   C93       1.0  0.88727  0.66831  0.11636  1.0000
  C   C94       1.0  0.90709  0.64713  0.09656  1.0000
  C   C95       1.0  0.93083  0.62364  0.07261  1.0000
  C   C96       1.0  0.95143  0.60463  0.05153  1.0000
  C   C97       1.0  0.88735  0.33147  0.88382  1.0000
  C   C98       1.0  0.90707  0.35259  0.90362  1.0000
  C   C99       1.0  0.93072  0.37601  0.92754  1.0000
  C   C100      1.0  0.95128  0.39497  0.94856  1.0000
  C   C101      1.0  0.11310  0.66812  0.88339  1.0000
  C   C102      1.0  0.09332  0.64692  0.90317  1.0000
  C   C103      1.0  0.06957  0.62349  0.92711  1.0000
  C   C104      1.0  0.04894  0.60455  0.94819  1.0000
  C   C105      1.0  0.11383  0.11505  0.33253  1.0000
  C   C106      1.0  0.09467  0.09573  0.35453  1.0000
  C   C107      1.0  0.07136  0.07215  0.37871  1.0000
  C   C108      1.0  0.05074  0.05122  0.39792  1.0000
  C   C109      1.0  0.11316  0.88492  0.66761  1.0000
  C   C110      1.0  0.09409  0.90419  0.64551  1.0000
  C   C111      1.0  0.07092  0.92766  0.62114  1.0000
  C   C112      1.0  0.05041  0.94849  0.60175  1.0000
  C   C113      1.0  0.88756  0.88500  0.33190  1.0000
  C   C114      1.0  0.90659  0.90416  0.35404  1.0000
  C   C115      1.0  0.92971  0.92755  0.37844  1.0000
  C   C116      1.0  0.95020  0.94837  0.39780  1.0000
  C   C117      1.0  0.88737  0.11520  0.66778  1.0000
  C   C118      1.0  0.90637  0.09601  0.64552  1.0000
  C   C119      1.0  0.92947  0.07254  0.62101  1.0000
  C   C120      1.0  0.94995  0.05162  0.60161  1.0000
  N   N1        1.0  0.25806  0.15002  0.17860  1.0000
  N   N2        1.0  0.25769  0.17757  0.15228  1.0000
  N   N3        1.0  0.17622  0.25843  0.15217  1.0000
  N   N4        1.0  0.14821  0.25841  0.17814  1.0000
  N   N5        1.0  0.14838  0.17718  0.25691  1.0000
  N   N6        1.0  0.17633  0.15011  0.25729  1.0000
  N   N7        1.0  0.74276  0.15059  0.82162  1.0000
  N   N8        1.0  0.74330  0.17803  0.84800  1.0000
  N   N9        1.0  0.82385  0.25939  0.84727  1.0000
  N   N10       1.0  0.85184  0.25935  0.82128  1.0000
  N   N11       1.0  0.85213  0.17782  0.74286  1.0000
  N   N12       1.0  0.82411  0.15090  0.74231  1.0000
  N   N13       1.0  0.25703  0.84990  0.82145  1.0000
  N   N14       1.0  0.25627  0.82264  0.84800  1.0000
  N   N15       1.0  0.17627  0.74077  0.84708  1.0000
  N   N16       1.0  0.14816  0.74103  0.82137  1.0000
  N   N17       1.0  0.14788  0.82262  0.74303  1.0000
  N   N18       1.0  0.17631  0.84908  0.74191  1.0000
  N   N19       1.0  0.74283  0.84994  0.17874  1.0000
  N   N20       1.0  0.74336  0.82248  0.15242  1.0000
  N   N21       1.0  0.82379  0.74076  0.15293  1.0000
  N   N22       1.0  0.85163  0.74055  0.17893  1.0000
  N   N23       1.0  0.85207  0.82227  0.25723  1.0000
  N   N24       1.0  0.82419  0.84941  0.25776  1.0000
