data_image0
_chemical_formula_structural       Cu12H72C135N24
_chemical_formula_sum              "Cu12 H72 C135 N24"
_cell_length_a       31.7185
_cell_length_b       31.8533
_cell_length_c       32.1503
_cell_angle_alpha    89.9211
_cell_angle_beta     90.0083
_cell_angle_gamma    89.8585

_symmetry_space_group_name_H-M    "P 1"
_symmetry_int_tables_number       1

loop_
  _symmetry_equiv_pos_as_xyz
  'x, y, z'

loop_
  _atom_site_type_symbol
  _atom_site_label
  _atom_site_symmetry_multiplicity
  _atom_site_fract_x
  _atom_site_fract_y
  _atom_site_fract_z
  _atom_site_occupancy
  Cu  Cu1       1.0  0.78200  0.78233  0.85487  1.0000
  Cu  Cu2       1.0  0.85713  0.78010  0.78120  1.0000
  Cu  Cu3       1.0  0.77999  0.85749  0.78143  1.0000
  Cu  Cu4       1.0  0.78131  0.21710  0.14531  1.0000
  Cu  Cu5       1.0  0.85634  0.21935  0.21910  1.0000
  Cu  Cu6       1.0  0.77946  0.14209  0.21891  1.0000
  Cu  Cu7       1.0  0.21828  0.78300  0.14533  1.0000
  Cu  Cu8       1.0  0.14317  0.78085  0.21902  1.0000
  Cu  Cu9       1.0  0.22043  0.85773  0.21899  1.0000
  Cu  Cu10      1.0  0.22077  0.21955  0.85254  1.0000
  Cu  Cu11      1.0  0.14318  0.21920  0.78075  1.0000
  Cu  Cu12      1.0  0.22027  0.14211  0.78106  1.0000
  H   H1        1.0  0.81436  0.70139  0.90936  1.0000
  H   H2        1.0  0.90935  0.69928  0.81496  1.0000
  H   H3        1.0  0.69932  0.90989  0.81554  1.0000
  H   H4        1.0  0.70115  0.81485  0.90964  1.0000
  H   H5        1.0  0.90897  0.81397  0.70052  1.0000
  H   H6        1.0  0.81403  0.90923  0.70081  1.0000
  H   H7        1.0  0.81350  0.29795  0.09079  1.0000
  H   H8        1.0  0.90824  0.30010  0.18532  1.0000
  H   H9        1.0  0.69894  0.08982  0.18487  1.0000
  H   H10       1.0  0.70058  0.18462  0.09053  1.0000
  H   H11       1.0  0.90823  0.18553  0.29988  1.0000
  H   H12       1.0  0.81361  0.09042  0.29965  1.0000
  H   H13       1.0  0.18580  0.70245  0.09075  1.0000
  H   H14       1.0  0.09095  0.70043  0.18515  1.0000
  H   H15       1.0  0.30120  0.90977  0.18506  1.0000
  H   H16       1.0  0.29919  0.81531  0.09066  1.0000
  H   H17       1.0  0.09138  0.81460  0.29979  1.0000
  H   H18       1.0  0.18646  0.90926  0.29975  1.0000
  H   H19       1.0  0.18762  0.29964  0.90686  1.0000
  H   H20       1.0  0.08985  0.29878  0.81537  1.0000
  H   H21       1.0  0.29986  0.08872  0.81618  1.0000
  H   H22       1.0  0.30090  0.18638  0.90735  1.0000
  H   H23       1.0  0.09103  0.18524  0.70039  1.0000
  H   H24       1.0  0.18614  0.09012  0.70076  1.0000
  H   H25       1.0  0.97957  0.59084  0.88506  1.0000
  H   H26       1.0  0.01916  0.53802  0.92388  1.0000
  H   H27       1.0  0.92255  0.53830  0.01880  1.0000
  H   H28       1.0  0.88346  0.59114  0.97947  1.0000
  H   H29       1.0  0.88340  0.41033  0.01981  1.0000
  H   H30       1.0  0.92252  0.46304  0.98061  1.0000
  H   H31       1.0  0.01904  0.46271  0.07565  1.0000
  H   H32       1.0  0.97943  0.41002  0.11434  1.0000
  H   H33       1.0  0.11567  0.59045  0.01975  1.0000
  H   H34       1.0  0.07653  0.53782  0.98059  1.0000
  H   H35       1.0  0.97993  0.53813  0.07553  1.0000
  H   H36       1.0  0.01957  0.59074  0.11417  1.0000
  H   H37       1.0  0.11561  0.40975  0.97979  1.0000
  H   H38       1.0  0.07647  0.46255  0.01897  1.0000
  H   H39       1.0  0.97993  0.46284  0.92395  1.0000
  H   H40       1.0  0.01957  0.41006  0.88529  1.0000
  H   H41       1.0  0.59033  0.97959  0.88536  1.0000
  H   H42       1.0  0.53742  0.01908  0.92413  1.0000
  H   H43       1.0  0.53853  0.92344  0.01974  1.0000
  H   H44       1.0  0.59149  0.88444  0.98046  1.0000
  H   H45       1.0  0.40898  0.01942  0.88591  1.0000
  H   H46       1.0  0.46189  0.97993  0.92484  1.0000
  H   H47       1.0  0.46248  0.07677  0.01900  1.0000
  H   H48       1.0  0.40956  0.11577  0.97957  1.0000
  H   H49       1.0  0.59035  0.02006  0.11512  1.0000
  H   H50       1.0  0.53759  0.98054  0.07644  1.0000
  H   H51       1.0  0.53803  0.07616  0.98080  1.0000
  H   H52       1.0  0.59083  0.11520  0.02001  1.0000
  H   H53       1.0  0.41014  0.88379  0.02088  1.0000
  H   H54       1.0  0.46295  0.92276  0.98156  1.0000
  H   H55       1.0  0.46183  0.01955  0.07577  1.0000
  H   H56       1.0  0.40901  0.98010  0.11457  1.0000
  H   H57       1.0  0.88385  0.97954  0.58959  1.0000
  H   H58       1.0  0.92282  0.01897  0.53717  1.0000
  H   H59       1.0  0.01995  0.92342  0.53795  1.0000
  H   H60       1.0  0.98046  0.88450  0.59039  1.0000
  H   H61       1.0  0.02068  0.88409  0.41099  1.0000
  H   H62       1.0  0.98102  0.92289  0.46341  1.0000
  H   H63       1.0  0.07660  0.01950  0.46257  1.0000
  H   H64       1.0  0.11575  0.98020  0.41013  1.0000
  H   H65       1.0  0.11625  0.01985  0.58962  1.0000
  H   H66       1.0  0.07731  0.98054  0.53719  1.0000
  H   H67       1.0  0.98017  0.07607  0.53787  1.0000
  H   H68       1.0  0.01963  0.11488  0.59032  1.0000
  H   H69       1.0  0.97937  0.11563  0.41088  1.0000
  H   H70       1.0  0.01908  0.07672  0.46331  1.0000
  H   H71       1.0  0.92349  0.98012  0.46261  1.0000
  H   H72       1.0  0.88430  0.01953  0.41016  1.0000
  C   C1        1.0  0.83274  0.70769  0.88172  1.0000
  C   C2        1.0  0.86829  0.68645  0.86879  1.0000
  C   C3        1.0  0.88162  0.70654  0.83319  1.0000
  C   C4        1.0  0.70651  0.88216  0.83369  1.0000
  C   C5        1.0  0.68638  0.86885  0.86928  1.0000
  C   C6        1.0  0.70751  0.83325  0.88206  1.0000
  C   C7        1.0  0.88121  0.83242  0.70750  1.0000
  C   C8        1.0  0.86796  0.86804  0.68698  1.0000
  C   C9        1.0  0.83238  0.88141  0.70765  1.0000
  C   C10       1.0  0.83186  0.29163  0.11846  1.0000
  C   C11       1.0  0.86731  0.31288  0.13138  1.0000
  C   C12       1.0  0.88060  0.29279  0.16703  1.0000
  C   C13       1.0  0.70608  0.11748  0.16664  1.0000
  C   C14       1.0  0.68593  0.13074  0.13100  1.0000
  C   C15       1.0  0.70699  0.16625  0.11815  1.0000
  C   C16       1.0  0.88053  0.16712  0.29291  1.0000
  C   C17       1.0  0.86738  0.13155  0.31348  1.0000
  C   C18       1.0  0.83186  0.11820  0.29279  1.0000
  C   C19       1.0  0.16742  0.70879  0.11838  1.0000
  C   C20       1.0  0.13187  0.68765  0.13124  1.0000
  C   C21       1.0  0.11863  0.70769  0.16689  1.0000
  C   C22       1.0  0.29396  0.88220  0.16682  1.0000
  C   C23       1.0  0.31407  0.86897  0.13119  1.0000
  C   C24       1.0  0.29286  0.83359  0.11829  1.0000
  C   C25       1.0  0.11917  0.83291  0.29286  1.0000
  C   C26       1.0  0.13248  0.86834  0.31348  1.0000
  C   C27       1.0  0.16808  0.88160  0.29284  1.0000
  C   C28       1.0  0.16854  0.29266  0.87988  1.0000
  C   C29       1.0  0.13206  0.31292  0.86790  1.0000
  C   C30       1.0  0.11824  0.29225  0.83288  1.0000
  C   C31       1.0  0.29340  0.11708  0.83356  1.0000
  C   C32       1.0  0.31411  0.13090  0.86860  1.0000
  C   C33       1.0  0.29391  0.16733  0.88040  1.0000
  C   C34       1.0  0.11881  0.16679  0.70740  1.0000
  C   C35       1.0  0.13205  0.13117  0.68696  1.0000
  C   C36       1.0  0.16772  0.11787  0.70759  1.0000
  C   C37       1.0  0.00006  0.99978  0.50026  1.0000
  C   C38       1.0  0.99952  0.50043  0.99975  1.0000
  C   C39       1.0  0.50009  0.99978  0.00029  1.0000
  C   C40       1.0  0.92826  0.59385  0.92904  1.0000
  C   C41       1.0  0.96651  0.57850  0.91370  1.0000
  C   C42       1.0  0.98880  0.54785  0.93578  1.0000
  C   C43       1.0  0.88820  0.65455  0.88896  1.0000
  C   C44       1.0  0.93475  0.54800  0.98888  1.0000
  C   C45       1.0  0.91252  0.57866  0.96674  1.0000
  C   C46       1.0  0.90624  0.62664  0.90710  1.0000
  C   C47       1.0  0.97265  0.53081  0.97313  1.0000
  C   C48       1.0  0.92816  0.40732  0.07029  1.0000
  C   C49       1.0  0.91245  0.42265  0.03260  1.0000
  C   C50       1.0  0.93469  0.45324  0.01053  1.0000
  C   C51       1.0  0.88819  0.34664  0.11016  1.0000
  C   C52       1.0  0.98870  0.45305  0.06370  1.0000
  C   C53       1.0  0.96639  0.42247  0.08570  1.0000
  C   C54       1.0  0.90617  0.37455  0.09212  1.0000
  C   C55       1.0  0.97259  0.47021  0.02633  1.0000
  C   C56       1.0  0.07087  0.59345  0.07017  1.0000
  C   C57       1.0  0.08660  0.57815  0.03253  1.0000
  C   C58       1.0  0.06434  0.54760  0.01048  1.0000
  C   C59       1.0  0.11092  0.65398  0.11003  1.0000
  C   C60       1.0  0.01030  0.54778  0.06360  1.0000
  C   C61       1.0  0.03262  0.57831  0.08557  1.0000
  C   C62       1.0  0.09290  0.62615  0.09199  1.0000
  C   C63       1.0  0.02642  0.53063  0.02629  1.0000
  C   C64       1.0  0.07084  0.40704  0.92933  1.0000
  C   C65       1.0  0.08655  0.42221  0.96701  1.0000
  C   C66       1.0  0.06429  0.45285  0.98906  1.0000
  C   C67       1.0  0.11101  0.34652  0.88929  1.0000
  C   C68       1.0  0.01028  0.45301  0.93591  1.0000
  C   C69       1.0  0.03260  0.42238  0.91392  1.0000
  C   C70       1.0  0.09293  0.37432  0.90743  1.0000
  C   C71       1.0  0.02640  0.47005  0.97323  1.0000
  C   C72       1.0  0.59377  0.92877  0.92969  1.0000
  C   C73       1.0  0.57815  0.96672  0.91415  1.0000
  C   C74       1.0  0.54743  0.98895  0.93620  1.0000
  C   C75       1.0  0.65449  0.88876  0.88954  1.0000
  C   C76       1.0  0.54808  0.93544  0.98970  1.0000
  C   C77       1.0  0.57880  0.91327  0.96758  1.0000
  C   C78       1.0  0.62658  0.90677  0.90772  1.0000
  C   C79       1.0  0.53058  0.97303  0.97374  1.0000
  C   C80       1.0  0.40640  0.07082  0.92950  1.0000
  C   C81       1.0  0.42152  0.03253  0.91442  1.0000
  C   C82       1.0  0.45222  0.01029  0.93654  1.0000
  C   C83       1.0  0.34586  0.11095  0.88909  1.0000
  C   C84       1.0  0.45257  0.06447  0.98922  1.0000
  C   C85       1.0  0.42185  0.08665  0.96702  1.0000
  C   C86       1.0  0.37367  0.09288  0.90742  1.0000
  C   C87       1.0  0.46957  0.02653  0.97368  1.0000
  C   C88       1.0  0.59345  0.07088  0.07078  1.0000
  C   C89       1.0  0.57806  0.03293  0.08635  1.0000
  C   C90       1.0  0.54742  0.01067  0.06434  1.0000
  C   C91       1.0  0.65408  0.11088  0.11080  1.0000
  C   C92       1.0  0.54769  0.06417  0.01084  1.0000
  C   C93       1.0  0.57833  0.08636  0.03291  1.0000
  C   C94       1.0  0.62620  0.09287  0.09267  1.0000
  C   C95       1.0  0.53043  0.02657  0.02682  1.0000
  C   C96       1.0  0.40671  0.92872  0.07095  1.0000
  C   C97       1.0  0.42230  0.91288  0.03347  1.0000
  C   C98       1.0  0.45296  0.93504  0.01133  1.0000
  C   C99       1.0  0.34599  0.88879  0.11099  1.0000
  C   C100      1.0  0.45231  0.98920  0.06403  1.0000
  C   C101      1.0  0.42166  0.96698  0.08610  1.0000
  C   C102      1.0  0.37391  0.90676  0.09287  1.0000
  C   C103      1.0  0.46976  0.97298  0.02690  1.0000
  C   C104      1.0  0.92892  0.92878  0.59284  1.0000
  C   C105      1.0  0.91300  0.96666  0.57744  1.0000
  C   C106      1.0  0.93516  0.98886  0.54702  1.0000
  C   C107      1.0  0.88898  0.88898  0.65330  1.0000
  C   C108      1.0  0.98951  0.93541  0.54748  1.0000
  C   C109      1.0  0.96727  0.91328  0.57790  1.0000
  C   C110      1.0  0.90699  0.90692  0.62549  1.0000
  C   C111      1.0  0.97321  0.97297  0.53029  1.0000
  C   C112      1.0  0.07147  0.92893  0.40771  1.0000
  C   C113      1.0  0.03352  0.91309  0.42313  1.0000
  C   C114      1.0  0.01119  0.93516  0.45355  1.0000
  C   C115      1.0  0.11146  0.88923  0.34720  1.0000
  C   C116      1.0  0.06466  0.98921  0.45306  1.0000
  C   C117      1.0  0.08692  0.96708  0.42264  1.0000
  C   C118      1.0  0.09344  0.90713  0.37504  1.0000
  C   C119      1.0  0.02703  0.97301  0.47026  1.0000
  C   C120      1.0  0.07117  0.07059  0.59283  1.0000
  C   C121      1.0  0.08711  0.03275  0.57745  1.0000
  C   C122      1.0  0.06496  0.01062  0.54701  1.0000
  C   C123      1.0  0.11106  0.11027  0.65330  1.0000
  C   C124      1.0  0.01061  0.06406  0.54742  1.0000
  C   C125      1.0  0.03283  0.08613  0.57784  1.0000
  C   C126      1.0  0.09307  0.09238  0.62548  1.0000
  C   C127      1.0  0.02691  0.02654  0.53026  1.0000
  C   C128      1.0  0.92857  0.07081  0.40767  1.0000
  C   C129      1.0  0.96654  0.08661  0.42305  1.0000
  C   C130      1.0  0.98890  0.06448  0.45348  1.0000
  C   C131      1.0  0.88848  0.11062  0.34718  1.0000
  C   C132      1.0  0.93543  0.01043  0.45307  1.0000
  C   C133      1.0  0.91314  0.03262  0.42264  1.0000
  C   C134      1.0  0.90656  0.09267  0.37501  1.0000
  C   C135      1.0  0.97307  0.02660  0.47023  1.0000
  N   N1        1.0  0.85468  0.73836  0.82546  1.0000
  N   N2        1.0  0.82540  0.73906  0.85446  1.0000
  N   N3        1.0  0.73887  0.82587  0.85471  1.0000
  N   N4        1.0  0.73826  0.85516  0.82581  1.0000
  N   N5        1.0  0.82489  0.85451  0.73916  1.0000
  N   N6        1.0  0.85427  0.82502  0.73908  1.0000
  N   N7        1.0  0.85380  0.26100  0.17476  1.0000
  N   N8        1.0  0.82458  0.26029  0.14571  1.0000
  N   N9        1.0  0.73832  0.17363  0.14550  1.0000
  N   N10       1.0  0.73776  0.14441  0.17448  1.0000
  N   N11       1.0  0.82431  0.14508  0.26123  1.0000
  N   N12       1.0  0.85359  0.17451  0.26130  1.0000
  N   N13       1.0  0.14555  0.73934  0.17466  1.0000
  N   N14       1.0  0.17480  0.74002  0.14565  1.0000
  N   N15       1.0  0.26148  0.82626  0.14561  1.0000
  N   N16       1.0  0.26215  0.85538  0.17461  1.0000
  N   N17       1.0  0.17553  0.85481  0.26126  1.0000
  N   N18       1.0  0.14610  0.82552  0.26127  1.0000
  N   N19       1.0  0.14573  0.26107  0.82460  1.0000
  N   N20       1.0  0.17589  0.26131  0.85269  1.0000
  N   N21       1.0  0.26253  0.17468  0.85304  1.0000
  N   N22       1.0  0.26223  0.14457  0.82507  1.0000
  N   N23       1.0  0.17524  0.14482  0.73900  1.0000
  N   N24       1.0  0.14582  0.17424  0.73888  1.0000
