data_image0
_chemical_formula_structural       Cu12H72C87N24
_chemical_formula_sum              "Cu12 H72 C87 N24"
_cell_length_a       25.9241
_cell_length_b       26.0119
_cell_length_c       26.2738
_cell_angle_alpha    89.8553
_cell_angle_beta     89.9775
_cell_angle_gamma    89.7784

_symmetry_space_group_name_H-M    "P 1"
_symmetry_int_tables_number       1

loop_
  _symmetry_equiv_pos_as_xyz
  'x, y, z'

loop_
  _atom_site_type_symbol
  _atom_site_label
  _atom_site_symmetry_multiplicity
  _atom_site_fract_x
  _atom_site_fract_y
  _atom_site_fract_z
  _atom_site_occupancy
  Cu  Cu1       1.0  0.78482  0.78580  0.87417  1.0000
  Cu  Cu2       1.0  0.87997  0.78704  0.78727  1.0000
  Cu  Cu3       1.0  0.78410  0.87926  0.78584  1.0000
  Cu  Cu4       1.0  0.78014  0.21640  0.12649  1.0000
  Cu  Cu5       1.0  0.87277  0.21795  0.21587  1.0000
  Cu  Cu6       1.0  0.78234  0.12121  0.21323  1.0000
  Cu  Cu7       1.0  0.21483  0.78596  0.12676  1.0000
  Cu  Cu8       1.0  0.12055  0.78633  0.21449  1.0000
  Cu  Cu9       1.0  0.21358  0.88071  0.21334  1.0000
  Cu  Cu10      1.0  0.21685  0.21710  0.86957  1.0000
  Cu  Cu11      1.0  0.12578  0.22158  0.77851  1.0000
  Cu  Cu12      1.0  0.21259  0.12015  0.78626  1.0000
  H   H1        1.0  0.82302  0.68453  0.93826  1.0000
  H   H2        1.0  0.94232  0.68664  0.82563  1.0000
  H   H3        1.0  0.68252  0.94034  0.82329  1.0000
  H   H4        1.0  0.68315  0.82342  0.93819  1.0000
  H   H5        1.0  0.94061  0.82541  0.68590  1.0000
  H   H6        1.0  0.82156  0.93944  0.68342  1.0000
  H   H7        1.0  0.81632  0.31883  0.06357  1.0000
  H   H8        1.0  0.93176  0.32092  0.17970  1.0000
  H   H9        1.0  0.68297  0.05832  0.17436  1.0000
  H   H10       1.0  0.67989  0.17744  0.06171  1.0000
  H   H11       1.0  0.93327  0.18021  0.31817  1.0000
  H   H12       1.0  0.82124  0.06025  0.31425  1.0000
  H   H13       1.0  0.17762  0.68447  0.06344  1.0000
  H   H14       1.0  0.05952  0.68512  0.17708  1.0000
  H   H15       1.0  0.31429  0.94214  0.17505  1.0000
  H   H16       1.0  0.31620  0.82346  0.06253  1.0000
  H   H17       1.0  0.05992  0.82457  0.31640  1.0000
  H   H18       1.0  0.17517  0.94154  0.31439  1.0000
  H   H19       1.0  0.17749  0.31551  0.93633  1.0000
  H   H20       1.0  0.06332  0.32129  0.81905  1.0000
  H   H21       1.0  0.31238  0.05704  0.82504  1.0000
  H   H22       1.0  0.31896  0.17943  0.93343  1.0000
  H   H23       1.0  0.06482  0.18248  0.67811  1.0000
  H   H24       1.0  0.17158  0.05729  0.68754  1.0000
  H   H25       1.0  0.97985  0.62137  0.86951  1.0000
  H   H26       1.0  0.02938  0.56505  0.92601  1.0000
  H   H27       1.0  0.89570  0.61394  0.95107  1.0000
  H   H28       1.0  0.92522  0.53706  0.97283  1.0000
  H   H29       1.0  0.96610  0.39102  0.13882  1.0000
  H   H30       1.0  0.01631  0.45235  0.09082  1.0000
  H   H31       1.0  0.88871  0.39246  0.05076  1.0000
  H   H32       1.0  0.92686  0.45653  0.01513  1.0000
  H   H33       1.0  0.02071  0.62026  0.13167  1.0000
  H   H34       1.0  0.97040  0.56376  0.07646  1.0000
  H   H35       1.0  0.10478  0.61124  0.05024  1.0000
  H   H36       1.0  0.07335  0.53666  0.02627  1.0000
  H   H37       1.0  0.13398  0.38265  0.97446  1.0000
  H   H38       1.0  0.08095  0.44042  0.02546  1.0000
  H   H39       1.0  0.04885  0.39102  0.89404  1.0000
  H   H40       1.0  0.02137  0.46245  0.92739  1.0000
  H   H41       1.0  0.61701  0.97753  0.86676  1.0000
  H   H42       1.0  0.56102  0.02771  0.92254  1.0000
  H   H43       1.0  0.61163  0.89533  0.95029  1.0000
  H   H44       1.0  0.53524  0.92527  0.97360  1.0000
  H   H45       1.0  0.37813  0.01999  0.86853  1.0000
  H   H46       1.0  0.43488  0.97074  0.92432  1.0000
  H   H47       1.0  0.38808  0.10563  0.94772  1.0000
  H   H48       1.0  0.46277  0.07380  0.97246  1.0000
  H   H49       1.0  0.61819  0.02076  0.13055  1.0000
  H   H50       1.0  0.56228  0.97095  0.07484  1.0000
  H   H51       1.0  0.61034  0.10435  0.04852  1.0000
  H   H52       1.0  0.53466  0.07375  0.02506  1.0000
  H   H53       1.0  0.37983  0.97895  0.13139  1.0000
  H   H54       1.0  0.43592  0.02847  0.07526  1.0000
  H   H55       1.0  0.38672  0.89561  0.04945  1.0000
  H   H56       1.0  0.46268  0.92553  0.02579  1.0000
  H   H57       1.0  0.97939  0.87095  0.62109  1.0000
  H   H58       1.0  0.02891  0.92709  0.56436  1.0000
  H   H59       1.0  0.89383  0.95169  0.61014  1.0000
  H   H60       1.0  0.92465  0.97376  0.53492  1.0000
  H   H61       1.0  0.12937  0.98101  0.37849  1.0000
  H   H62       1.0  0.07308  0.03117  0.43470  1.0000
  H   H63       1.0  0.04799  0.89674  0.38968  1.0000
  H   H64       1.0  0.02652  0.92773  0.46509  1.0000
  H   H65       1.0  0.02138  0.13455  0.61766  1.0000
  H   H66       1.0  0.96936  0.07763  0.56345  1.0000
  H   H67       1.0  0.10173  0.04823  0.61158  1.0000
  H   H68       1.0  0.07281  0.02922  0.53413  1.0000
  H   H69       1.0  0.86666  0.02180  0.37935  1.0000
  H   H70       1.0  0.92330  0.97207  0.43568  1.0000
  H   H71       1.0  0.94676  0.10722  0.39058  1.0000
  H   H72       1.0  0.96988  0.07562  0.46507  1.0000
  C   C1        1.0  0.84645  0.69322  0.90530  1.0000
  C   C2        1.0  0.89097  0.66789  0.89054  1.0000
  C   C3        1.0  0.90784  0.69401  0.84759  1.0000
  C   C4        1.0  0.69049  0.90637  0.84575  1.0000
  C   C5        1.0  0.66494  0.88997  0.88921  1.0000
  C   C6        1.0  0.69113  0.84623  0.90464  1.0000
  C   C7        1.0  0.90632  0.84778  0.69367  1.0000
  C   C8        1.0  0.88886  0.89043  0.66705  1.0000
  C   C9        1.0  0.84499  0.90618  0.69248  1.0000
  C   C10       1.0  0.83875  0.31109  0.09744  1.0000
  C   C11       1.0  0.88142  0.33811  0.11375  1.0000
  C   C12       1.0  0.89805  0.31251  0.15706  1.0000
  C   C13       1.0  0.69001  0.09277  0.15241  1.0000
  C   C14       1.0  0.66390  0.10944  0.10932  1.0000
  C   C15       1.0  0.68875  0.15405  0.09468  1.0000
  C   C16       1.0  0.90040  0.15659  0.30882  1.0000
  C   C17       1.0  0.88528  0.11241  0.33382  1.0000
  C   C18       1.0  0.84301  0.09480  0.30690  1.0000
  C   C19       1.0  0.15458  0.69278  0.09676  1.0000
  C   C20       1.0  0.11079  0.66693  0.11214  1.0000
  C   C21       1.0  0.09383  0.69285  0.15503  1.0000
  C   C22       1.0  0.30692  0.90783  0.15317  1.0000
  C   C23       1.0  0.33302  0.89094  0.11021  1.0000
  C   C24       1.0  0.30759  0.84678  0.09550  1.0000
  C   C25       1.0  0.09346  0.84747  0.30748  1.0000
  C   C26       1.0  0.10948  0.89094  0.33292  1.0000
  C   C27       1.0  0.15250  0.90772  0.30653  1.0000
  C   C28       1.0  0.15542  0.30907  0.90207  1.0000
  C   C29       1.0  0.11212  0.33597  0.88607  1.0000
  C   C30       1.0  0.09691  0.31202  0.84173  1.0000
  C   C31       1.0  0.30618  0.09227  0.84591  1.0000
  C   C32       1.0  0.33344  0.10986  0.88778  1.0000
  C   C33       1.0  0.30928  0.15528  0.90139  1.0000
  C   C34       1.0  0.09641  0.15740  0.68859  1.0000
  C   C35       1.0  0.11008  0.11147  0.66565  1.0000
  C   C36       1.0  0.15133  0.09318  0.69357  1.0000
  C   C37       1.0  0.99849  0.00171  0.49971  1.0000
  C   C38       1.0  0.99909  0.50070  0.00047  1.0000
  C   C39       1.0  0.49872  0.99955  0.99922  1.0000
  C   C40       1.0  0.91449  0.62720  0.91672  1.0000
  C   C41       1.0  0.95983  0.60659  0.90253  1.0000
  C   C42       1.0  0.98818  0.56754  0.93254  1.0000
  C   C43       1.0  0.96652  0.53583  0.96681  1.0000
  C   C44       1.0  0.90604  0.38116  0.08644  1.0000
  C   C45       1.0  0.94927  0.40364  0.10324  1.0000
  C   C46       1.0  0.97896  0.44301  0.07503  1.0000
  C   C47       1.0  0.96371  0.46613  0.03171  1.0000
  C   C48       1.0  0.08591  0.62440  0.08455  1.0000
  C   C49       1.0  0.04027  0.60490  0.09865  1.0000
  C   C50       1.0  0.01139  0.56636  0.06894  1.0000
  C   C51       1.0  0.03235  0.53523  0.03379  1.0000
  C   C52       1.0  0.08415  0.37799  0.91181  1.0000
  C   C53       1.0  0.09953  0.39760  0.95643  1.0000
  C   C54       1.0  0.07018  0.43632  0.98589  1.0000
  C   C55       1.0  0.03196  0.46577  0.96705  1.0000
  C   C56       1.0  0.62423  0.91349  0.91538  1.0000
  C   C57       1.0  0.60294  0.95821  0.90047  1.0000
  C   C58       1.0  0.56416  0.98691  0.93040  1.0000
  C   C59       1.0  0.53346  0.96614  0.96608  1.0000
  C   C60       1.0  0.37402  0.08625  0.91414  1.0000
  C   C61       1.0  0.39356  0.04028  0.90097  1.0000
  C   C62       1.0  0.43239  0.01173  0.93115  1.0000
  C   C63       1.0  0.46380  0.03277  0.96594  1.0000
  C   C64       1.0  0.62363  0.08574  0.08299  1.0000
  C   C65       1.0  0.60343  0.04047  0.09728  1.0000
  C   C66       1.0  0.56483  0.01184  0.06735  1.0000
  C   C67       1.0  0.53354  0.03279  0.03215  1.0000
  C   C68       1.0  0.37365  0.91424  0.08390  1.0000
  C   C69       1.0  0.39435  0.95921  0.09813  1.0000
  C   C70       1.0  0.43311  0.98760  0.06798  1.0000
  C   C71       1.0  0.46410  0.96648  0.03271  1.0000
  C   C72       1.0  0.91325  0.91758  0.62402  1.0000
  C   C73       1.0  0.95918  0.90361  0.60499  1.0000
  C   C74       1.0  0.98763  0.93347  0.56622  1.0000
  C   C75       1.0  0.96597  0.96772  0.53430  1.0000
  C   C76       1.0  0.08232  0.91563  0.37578  1.0000
  C   C77       1.0  0.09655  0.96128  0.39463  1.0000
  C   C78       1.0  0.06672  0.99006  0.43320  1.0000
  C   C79       1.0  0.03253  0.96888  0.46537  1.0000
  C   C80       1.0  0.08454  0.08419  0.62354  1.0000
  C   C81       1.0  0.03991  0.10026  0.60314  1.0000
  C   C82       1.0  0.01053  0.07053  0.56516  1.0000
  C   C83       1.0  0.03154  0.03575  0.53356  1.0000
  C   C84       1.0  0.91277  0.08785  0.37665  1.0000
  C   C85       1.0  0.89924  0.04186  0.39544  1.0000
  C   C86       1.0  0.92949  0.01320  0.43392  1.0000
  C   C87       1.0  0.96396  0.03446  0.46562  1.0000
  N   N1        1.0  0.87481  0.73297  0.83837  1.0000
  N   N2        1.0  0.83807  0.73261  0.87290  1.0000
  N   N3        1.0  0.73049  0.83788  0.87214  1.0000
  N   N4        1.0  0.72998  0.87388  0.83689  1.0000
  N   N5        1.0  0.83732  0.87457  0.73242  1.0000
  N   N6        1.0  0.87420  0.83941  0.73312  1.0000
  N   N7        1.0  0.86652  0.27235  0.16526  1.0000
  N   N8        1.0  0.83099  0.27141  0.12956  1.0000
  N   N9        1.0  0.72785  0.16267  0.12730  1.0000
  N   N10       1.0  0.72849  0.12598  0.16185  1.0000
  N   N11       1.0  0.83425  0.12714  0.26770  1.0000
  N   N12       1.0  0.86878  0.16430  0.26884  1.0000
  N   N13       1.0  0.12625  0.73212  0.16384  1.0000
  N   N14       1.0  0.16263  0.73219  0.12893  1.0000
  N   N15       1.0  0.26816  0.83863  0.12793  1.0000
  N   N16       1.0  0.26787  0.87518  0.16244  1.0000
  N   N17       1.0  0.16083  0.87563  0.26720  1.0000
  N   N18       1.0  0.12529  0.83940  0.26774  1.0000
  N   N19       1.0  0.12962  0.27287  0.83237  1.0000
  N   N20       1.0  0.16470  0.27107  0.86849  1.0000
  N   N21       1.0  0.26950  0.16349  0.86936  1.0000
  N   N22       1.0  0.26773  0.12577  0.83620  1.0000
  N   N23       1.0  0.16109  0.12652  0.73147  1.0000
  N   N24       1.0  0.12820  0.16529  0.72834  1.0000
