data_image0
_chemical_formula_structural       Cu12H72C120N36
_chemical_formula_sum              "Cu12 H72 C120 N36"
_cell_length_a       33.1468
_cell_length_b       33.2222
_cell_length_c       33.9363
_cell_angle_alpha    89.6762
_cell_angle_beta     92.956
_cell_angle_gamma    89.7934

_symmetry_space_group_name_H-M    "P 1"
_symmetry_int_tables_number       1

loop_
  _symmetry_equiv_pos_as_xyz
  'x, y, z'

loop_
  _atom_site_type_symbol
  _atom_site_label
  _atom_site_symmetry_multiplicity
  _atom_site_fract_x
  _atom_site_fract_y
  _atom_site_fract_z
  _atom_site_occupancy
  Cu  Cu1       1.0  0.87614  0.91393  0.83080  1.0000
  Cu  Cu2       1.0  0.83596  0.87776  0.91227  1.0000
  Cu  Cu3       1.0  0.90795  0.82343  0.86367  1.0000
  Cu  Cu4       1.0  0.13398  0.59080  0.33738  1.0000
  Cu  Cu5       1.0  0.17527  0.62668  0.42269  1.0000
  Cu  Cu6       1.0  0.08735  0.66818  0.37964  1.0000
  Cu  Cu7       1.0  0.35595  0.10459  0.67389  1.0000
  Cu  Cu8       1.0  0.31669  0.13412  0.58566  1.0000
  Cu  Cu9       1.0  0.41802  0.14783  0.61038  1.0000
  Cu  Cu10      1.0  0.62425  0.41320  0.16567  1.0000
  Cu  Cu11      1.0  0.66403  0.37330  0.08571  1.0000
  Cu  Cu12      1.0  0.58320  0.32792  0.12911  1.0000
  H   H1        1.0  0.81381  0.99035  0.81461  1.0000
  H   H2        1.0  0.77009  0.94825  0.92376  1.0000
  H   H3        1.0  0.97923  0.80970  0.80295  1.0000
  H   H4        1.0  0.94333  0.92793  0.76447  1.0000
  H   H5        1.0  0.82812  0.81614  0.98598  1.0000
  H   H6        1.0  0.91939  0.75104  0.92841  1.0000
  H   H7        1.0  0.20055  0.52050  0.32280  1.0000
  H   H8        1.0  0.24969  0.56303  0.43378  1.0000
  H   H9        1.0  0.01339  0.67975  0.31413  1.0000
  H   H10       1.0  0.06865  0.57734  0.26309  1.0000
  H   H11       1.0  0.18463  0.68840  0.49682  1.0000
  H   H12       1.0  0.07362  0.73592  0.44634  1.0000
  H   H13       1.0  0.29475  0.03004  0.68901  1.0000
  H   H14       1.0  0.24897  0.06385  0.57319  1.0000
  H   H15       1.0  0.49769  0.15352  0.66955  1.0000
  H   H16       1.0  0.41679  0.10538  0.75199  1.0000
  H   H17       1.0  0.30973  0.19528  0.51139  1.0000
  H   H18       1.0  0.43638  0.20894  0.53855  1.0000
  H   H19       1.0  0.68646  0.48932  0.17757  1.0000
  H   H20       1.0  0.73293  0.44013  0.07286  1.0000
  H   H21       1.0  0.51542  0.31531  0.19359  1.0000
  H   H22       1.0  0.56181  0.42777  0.23609  1.0000
  H   H23       1.0  0.67435  0.30759  0.01661  1.0000
  H   H24       1.0  0.57179  0.25394  0.06682  1.0000
  H   H25       1.0  0.71277  0.08261  0.93071  1.0000
  H   H26       1.0  0.67738  0.05664  0.80878  1.0000
  H   H27       1.0  0.73091  0.00591  0.80781  1.0000
  H   H28       1.0  0.76448  0.03051  0.92958  1.0000
  H   H29       1.0  0.32178  0.43465  0.43873  1.0000
  H   H30       1.0  0.32547  0.44907  0.31248  1.0000
  H   H31       1.0  0.27421  0.50220  0.31399  1.0000
  H   H32       1.0  0.27138  0.48875  0.44035  1.0000
  H   H33       1.0  0.19976  0.92304  0.57431  1.0000
  H   H34       1.0  0.16316  0.95920  0.68972  1.0000
  H   H35       1.0  0.21145  0.01443  0.68945  1.0000
  H   H36       1.0  0.24622  0.97983  0.57384  1.0000
  H   H37       1.0  0.80366  0.56513  0.06064  1.0000
  H   H38       1.0  0.81285  0.56295  0.18798  1.0000
  H   H39       1.0  0.75972  0.51185  0.18838  1.0000
  H   H40       1.0  0.75144  0.51322  0.06107  1.0000
  H   H41       1.0  0.07650  0.93092  0.71030  1.0000
  H   H42       1.0  0.04513  0.80917  0.67559  1.0000
  H   H43       1.0  0.99368  0.80809  0.72453  1.0000
  H   H44       1.0  0.02363  0.92981  0.75754  1.0000
  H   H45       1.0  0.45826  0.30991  0.32451  1.0000
  H   H46       1.0  0.43043  0.43480  0.29684  1.0000
  H   H47       1.0  0.48111  0.43426  0.24724  1.0000
  H   H48       1.0  0.50729  0.30954  0.27332  1.0000
  H   H49       1.0  0.94069  0.69224  0.18618  1.0000
  H   H50       1.0  0.93951  0.56241  0.19029  1.0000
  H   H51       1.0  0.99333  0.56311  0.24266  1.0000
  H   H52       1.0  0.99341  0.69295  0.23963  1.0000
  H   H53       1.0  0.51676  0.14424  0.85278  1.0000
  H   H54       1.0  0.60344  0.11532  0.76648  1.0000
  H   H55       1.0  0.54941  0.11657  0.71443  1.0000
  H   H56       1.0  0.46260  0.14429  0.80089  1.0000
  H   H57       1.0  0.93933  0.68365  0.05707  1.0000
  H   H58       1.0  0.80946  0.69211  0.05811  1.0000
  H   H59       1.0  0.80935  0.74287  0.00538  1.0000
  H   H60       1.0  0.93904  0.73327  0.00312  1.0000
  H   H61       1.0  0.31697  0.31873  0.43986  1.0000
  H   H62       1.0  0.44111  0.28815  0.42049  1.0000
  H   H63       1.0  0.43816  0.23338  0.46879  1.0000
  H   H64       1.0  0.31391  0.26378  0.48755  1.0000
  H   H65       1.0  0.55833  0.18347  0.94033  1.0000
  H   H66       1.0  0.68874  0.18482  0.94647  1.0000
  H   H67       1.0  0.68827  0.23485  0.99895  1.0000
  H   H68       1.0  0.55797  0.23281  0.99392  1.0000
  H   H69       1.0  0.19059  0.81413  0.56990  1.0000
  H   H70       1.0  0.06108  0.80194  0.57126  1.0000
  H   H71       1.0  0.06280  0.75120  0.51923  1.0000
  H   H72       1.0  0.19242  0.76234  0.51882  1.0000
  C   C1        1.0  0.35683  0.40438  0.37419  1.0000
  C   C2        1.0  0.38124  0.34163  0.39818  1.0000
  C   C3        1.0  0.41113  0.37264  0.34404  1.0000
  C   C4        1.0  0.65836  0.10177  0.87153  1.0000
  C   C5        1.0  0.59667  0.12881  0.84500  1.0000
  C   C6        1.0  0.62425  0.15205  0.90607  1.0000
  C   C7        1.0  0.84446  0.59848  0.12392  1.0000
  C   C8        1.0  0.87441  0.65421  0.09370  1.0000
  C   C9        1.0  0.90406  0.62684  0.15258  1.0000
  C   C10       1.0  0.14990  0.90404  0.63222  1.0000
  C   C11       1.0  0.09483  0.87125  0.66036  1.0000
  C   C12       1.0  0.12450  0.84345  0.60479  1.0000
  C   C13       1.0  0.80910  0.97330  0.84121  1.0000
  C   C14       1.0  0.78137  0.98166  0.86912  1.0000
  C   C15       1.0  0.78709  0.95211  0.89765  1.0000
  C   C16       1.0  0.96380  0.83830  0.79902  1.0000
  C   C17       1.0  0.97279  0.86869  0.77296  1.0000
  C   C18       1.0  0.94563  0.89925  0.77966  1.0000
  C   C19       1.0  0.85005  0.80648  0.96546  1.0000
  C   C20       1.0  0.87395  0.77241  0.96874  1.0000
  C   C21       1.0  0.89716  0.77318  0.93607  1.0000
  C   C22       1.0  0.20627  0.53734  0.34967  1.0000
  C   C23       1.0  0.23716  0.53063  0.37789  1.0000
  C   C24       1.0  0.23124  0.55878  0.40692  1.0000
  C   C25       1.0  0.03347  0.65512  0.30791  1.0000
  C   C26       1.0  0.02934  0.62849  0.27684  1.0000
  C   C27       1.0  0.06160  0.60219  0.28203  1.0000
  C   C28       1.0  0.15788  0.69396  0.47797  1.0000
  C   C29       1.0  0.12863  0.72286  0.48342  1.0000
  C   C30       1.0  0.10059  0.71804  0.45230  1.0000
  C   C31       1.0  0.28905  0.04525  0.66100  1.0000
  C   C32       1.0  0.26083  0.03487  0.63142  1.0000
  C   C33       1.0  0.26592  0.06223  0.60127  1.0000
  C   C34       1.0  0.47158  0.14165  0.68346  1.0000
  C   C35       1.0  0.46922  0.13029  0.72257  1.0000
  C   C36       1.0  0.42981  0.11765  0.72595  1.0000
  C   C37       1.0  0.34033  0.19197  0.52366  1.0000
  C   C38       1.0  0.37423  0.21199  0.51187  1.0000
  C   C39       1.0  0.40551  0.19839  0.53721  1.0000
  C   C40       1.0  0.69160  0.47089  0.15214  1.0000
  C   C41       1.0  0.72065  0.47689  0.12487  1.0000
  C   C42       1.0  0.71517  0.44598  0.09807  1.0000
  C   C43       1.0  0.53300  0.34243  0.19798  1.0000
  C   C44       1.0  0.52778  0.37157  0.22614  1.0000
  C   C45       1.0  0.55650  0.40049  0.21941  1.0000
  C   C46       1.0  0.64971  0.30081  0.03520  1.0000
  C   C47       1.0  0.62316  0.26904  0.03084  1.0000
  C   C48       1.0  0.59672  0.27351  0.06070  1.0000
  C   C49       1.0  0.71619  0.06640  0.90348  1.0000
  C   C50       1.0  0.69028  0.07386  0.86992  1.0000
  C   C51       1.0  0.69632  0.05171  0.83535  1.0000
  C   C52       1.0  0.72705  0.02277  0.83460  1.0000
  C   C53       1.0  0.75137  0.01442  0.86868  1.0000
  C   C54       1.0  0.74581  0.03646  0.90303  1.0000
  C   C55       1.0  0.31178  0.44941  0.41139  1.0000
  C   C56       1.0  0.32745  0.43778  0.37548  1.0000
  C   C57       1.0  0.31399  0.45761  0.34057  1.0000
  C   C58       1.0  0.28457  0.48778  0.34139  1.0000
  C   C59       1.0  0.26893  0.49943  0.37728  1.0000
  C   C60       1.0  0.28317  0.48040  0.41235  1.0000
  C   C61       1.0  0.20169  0.94267  0.59970  1.0000
  C   C62       1.0  0.17734  0.93627  0.63203  1.0000
  C   C63       1.0  0.18106  0.96302  0.66415  1.0000
  C   C64       1.0  0.20878  0.99462  0.66421  1.0000
  C   C65       1.0  0.23218  0.00117  0.63160  1.0000
  C   C66       1.0  0.22821  0.97526  0.59922  1.0000
  C   C67       1.0  0.79425  0.55374  0.08868  1.0000
  C   C68       1.0  0.81228  0.56790  0.12427  1.0000
  C   C69       1.0  0.79953  0.55238  0.16013  1.0000
  C   C70       1.0  0.76905  0.52339  0.16037  1.0000
  C   C71       1.0  0.75164  0.50866  0.12475  1.0000
  C   C72       1.0  0.76458  0.52398  0.08891  1.0000
  C   C73       1.0  0.05880  0.90377  0.71283  1.0000
  C   C74       1.0  0.06527  0.87017  0.68869  1.0000
  C   C75       1.0  0.04111  0.83576  0.69331  1.0000
  C   C76       1.0  0.01171  0.83494  0.72142  1.0000
  C   C77       1.0  0.00481  0.86891  0.74446  1.0000
  C   C78       1.0  0.02840  0.90335  0.73984  1.0000
  C   C79       1.0  0.46264  0.33737  0.30794  1.0000
  C   C80       1.0  0.44000  0.37239  0.31503  1.0000
  C   C81       1.0  0.44694  0.40715  0.29233  1.0000
  C   C82       1.0  0.47607  0.40704  0.26399  1.0000
  C   C83       1.0  0.49779  0.37187  0.25665  1.0000
  C   C84       1.0  0.49065  0.33696  0.27853  1.0000
  C   C85       1.0  0.95196  0.66392  0.19838  1.0000
  C   C86       1.0  0.93616  0.62727  0.18429  1.0000
  C   C87       1.0  0.95117  0.59103  0.20081  1.0000
  C   C88       1.0  0.98197  0.59142  0.23053  1.0000
  C   C89       1.0  0.99731  0.62808  0.24505  1.0000
  C   C90       1.0  0.98186  0.66434  0.22898  1.0000
  C   C91       1.0  0.52421  0.13820  0.82267  1.0000
  C   C92       1.0  0.56420  0.12973  0.81356  1.0000
  C   C93       1.0  0.57282  0.12180  0.77426  1.0000
  C   C94       1.0  0.54202  0.12272  0.74452  1.0000
  C   C95       1.0  0.50194  0.13047  0.75376  1.0000
  C   C96       1.0  0.49326  0.13802  0.79309  1.0000
  C   C97       1.0  0.91083  0.69635  0.04585  1.0000
  C   C98       1.0  0.87440  0.68421  0.06156  1.0000
  C   C99       1.0  0.83789  0.70096  0.04633  1.0000
  C   C100      1.0  0.83784  0.73000  0.01640  1.0000
  C   C101      1.0  0.87419  0.74177  0.00034  1.0000
  C   C102      1.0  0.91065  0.72445  0.01499  1.0000
  C   C103      1.0  0.34360  0.30024  0.44582  1.0000
  C   C104      1.0  0.37930  0.30778  0.42650  1.0000
  C   C105      1.0  0.41315  0.28298  0.43485  1.0000
  C   C106      1.0  0.41154  0.25179  0.46258  1.0000
  C   C107      1.0  0.37581  0.24428  0.48183  1.0000
  C   C108      1.0  0.34176  0.26859  0.47291  1.0000
  C   C109      1.0  0.58682  0.19429  0.95320  1.0000
  C   C110      1.0  0.62356  0.18038  0.93937  1.0000
  C   C111      1.0  0.66000  0.19488  0.95672  1.0000
  C   C112      1.0  0.65976  0.22363  0.98653  1.0000
  C   C113      1.0  0.62310  0.23763  0.00029  1.0000
  C   C114      1.0  0.58661  0.22228  0.98386  1.0000
  C   C115      1.0  0.16257  0.80041  0.55916  1.0000
  C   C116      1.0  0.12570  0.81191  0.57444  1.0000
  C   C117      1.0  0.08990  0.79346  0.56005  1.0000
  C   C118      1.0  0.09085  0.76466  0.53023  1.0000
  C   C119      1.0  0.12774  0.75298  0.51516  1.0000
  C   C120      1.0  0.16364  0.77073  0.53017  1.0000
  N   N1        1.0  0.35523  0.37318  0.40007  1.0000
  N   N2        1.0  0.40895  0.34149  0.37004  1.0000
  N   N3        1.0  0.38485  0.40399  0.34638  1.0000
  N   N4        1.0  0.62888  0.10372  0.84216  1.0000
  N   N5        1.0  0.59439  0.15276  0.87714  1.0000
  N   N6        1.0  0.65584  0.12632  0.90323  1.0000
  N   N7        1.0  0.84467  0.62623  0.09438  1.0000
  N   N8        1.0  0.90404  0.65442  0.12288  1.0000
  N   N9        1.0  0.87425  0.59890  0.15295  1.0000
  N   N10       1.0  0.12171  0.90206  0.65988  1.0000
  N   N11       1.0  0.09655  0.84195  0.63266  1.0000
  N   N12       1.0  0.15095  0.87457  0.60465  1.0000
  N   N13       1.0  0.81672  0.92744  0.88677  1.0000
  N   N14       1.0  0.83034  0.94040  0.85328  1.0000
  N   N15       1.0  0.92165  0.88704  0.80822  1.0000
  N   N16       1.0  0.93297  0.85083  0.82026  1.0000
  N   N17       1.0  0.88690  0.80612  0.91440  1.0000
  N   N18       1.0  0.85902  0.82647  0.93245  1.0000
  N   N19       1.0  0.19849  0.58103  0.39588  1.0000
  N   N20       1.0  0.18328  0.56790  0.36181  1.0000
  N   N21       1.0  0.08372  0.61324  0.31457  1.0000
  N   N22       1.0  0.06656  0.64460  0.33033  1.0000
  N   N23       1.0  0.11300  0.68782  0.42951  1.0000
  N   N24       1.0  0.14721  0.67298  0.44521  1.0000
  N   N25       1.0  0.29580  0.08750  0.61287  1.0000
  N   N26       1.0  0.30994  0.07710  0.64841  1.0000
  N   N27       1.0  0.41025  0.12133  0.69037  1.0000
  N   N28       1.0  0.43509  0.13614  0.66506  1.0000
  N   N29       1.0  0.39042  0.17198  0.56283  1.0000
  N   N30       1.0  0.35132  0.16806  0.55448  1.0000
  N   N31       1.0  0.68449  0.42291  0.10936  1.0000
  N   N32       1.0  0.67004  0.43804  0.14148  1.0000
  N   N33       1.0  0.57780  0.38851  0.18879  1.0000
  N   N34       1.0  0.56331  0.35403  0.17561  1.0000
  N   N35       1.0  0.60763  0.30634  0.08180  1.0000
  N   N36       1.0  0.63920  0.32302  0.06612  1.0000
