# generated using pymatgen
data_MgH3(CO)4
_symmetry_space_group_name_H-M   'P 1'
_cell_length_a   25.94349000
_cell_length_b   25.94349000
_cell_length_c   6.81892000
_cell_angle_alpha   90.00000000
_cell_angle_beta   90.00000000
_cell_angle_gamma   120.00000000
_symmetry_Int_Tables_number   1
_chemical_formula_structural   MgH3(CO)4
_chemical_formula_sum   'Mg18 H54 C72 O72'
_cell_volume   3974.68781737
_cell_formula_units_Z   18
loop_
 _symmetry_equiv_pos_site_id
 _symmetry_equiv_pos_as_xyz
  1  'x, y, z'
loop_
 _atom_site_type_symbol
 _atom_site_label
 _atom_site_symmetry_multiplicity
 _atom_site_fract_x
 _atom_site_fract_y
 _atom_site_fract_z
 _atom_site_occupancy
  Mg  Mg0  1  0.29883500  0.28168500  0.81384150  1
  Mg  Mg1  1  0.71831500  0.01715000  0.81384150  1
  Mg  Mg2  1  0.98285000  0.70116500  0.81384150  1
  Mg  Mg3  1  0.96550167  0.61501833  0.14717483  1
  Mg  Mg4  1  0.38498167  0.35048333  0.14717483  1
  Mg  Mg5  1  0.64951667  0.03449833  0.14717483  1
  Mg  Mg6  1  0.63216833  0.94835167  0.48050817  1
  Mg  Mg7  1  0.05164833  0.68381667  0.48050817  1
  Mg  Mg8  1  0.31618333  0.36783167  0.48050817  1
  Mg  Mg9  1  0.70116500  0.71831500  0.18615850  1
  Mg  Mg10  1  0.28168500  0.98285000  0.18615850  1
  Mg  Mg11  1  0.01715000  0.29883500  0.18615850  1
  Mg  Mg12  1  0.03449833  0.38498167  0.85282517  1
  Mg  Mg13  1  0.61501833  0.64951667  0.85282517  1
  Mg  Mg14  1  0.35048333  0.96550167  0.85282517  1
  Mg  Mg15  1  0.36783167  0.05164833  0.51949183  1
  Mg  Mg16  1  0.94835167  0.31618333  0.51949183  1
  Mg  Mg17  1  0.68381667  0.63216833  0.51949183  1
  O  O18  1  0.32395110  0.29638100  0.35463000  1
  O  O19  1  0.70361900  0.02757010  0.35463000  1
  O  O20  1  0.97242990  0.67604890  0.35463000  1
  O  O21  1  0.99061777  0.62971433  0.68796333  1
  O  O22  1  0.37028567  0.36090343  0.68796333  1
  O  O23  1  0.63909657  0.00938223  0.68796333  1
  O  O24  1  0.65728443  0.96304767  0.02129667  1
  O  O25  1  0.03695233  0.69423677  0.02129667  1
  O  O26  1  0.30576323  0.34271557  0.02129667  1
  O  O27  1  0.67604890  0.70361900  0.64537000  1
  O  O28  1  0.29638100  0.97242990  0.64537000  1
  O  O29  1  0.02757010  0.32395110  0.64537000  1
  O  O30  1  0.00938223  0.37028567  0.31203667  1
  O  O31  1  0.62971433  0.63909657  0.31203667  1
  O  O32  1  0.36090343  0.99061777  0.31203667  1
  O  O33  1  0.34271557  0.03695233  0.97870333  1
  O  O34  1  0.96304767  0.30576323  0.97870333  1
  O  O35  1  0.69423677  0.65728443  0.97870333  1
  O  O36  1  0.30980110  0.05992110  0.33753000  1
  O  O37  1  0.94007890  0.24988000  0.33753000  1
  O  O38  1  0.75012000  0.69019890  0.33753000  1
  O  O39  1  0.97646777  0.39325443  0.67086333  1
  O  O40  1  0.60674557  0.58321333  0.67086333  1
  O  O41  1  0.41678667  0.02353223  0.67086333  1
  O  O42  1  0.64313443  0.72658777  0.00419667  1
  O  O43  1  0.27341223  0.91654667  0.00419667  1
  O  O44  1  0.08345333  0.35686557  0.00419667  1
  O  O45  1  0.69019890  0.94007890  0.66247000  1
  O  O46  1  0.05992110  0.75012000  0.66247000  1
  O  O47  1  0.24988000  0.30980110  0.66247000  1
  O  O48  1  0.02353223  0.60674557  0.32913667  1
  O  O49  1  0.39325443  0.41678667  0.32913667  1
  O  O50  1  0.58321333  0.97646777  0.32913667  1
  O  O51  1  0.35686557  0.27341223  0.00000000  1
  O  O52  1  0.72658777  0.08345333  0.00000000  1
  O  O53  1  0.91654667  0.64313443  0.00000000  1
  O  O54  1  0.30085120  0.23056110  0.59213000  1
  O  O55  1  0.76943890  0.07029010  0.59213000  1
  O  O56  1  0.92970990  0.69914880  0.59213000  1
  O  O57  1  0.96751787  0.56389443  0.92546333  1
  O  O58  1  0.43610557  0.40362343  0.92546333  1
  O  O59  1  0.59637657  0.03248213  0.92546333  1
  O  O60  1  0.63418453  0.89722777  0.25879667  1
  O  O61  1  0.10277223  0.73695677  0.25879667  1
  O  O62  1  0.26304323  0.36581547  0.25879667  1
  O  O63  1  0.69914880  0.76943890  0.40787000  1
  O  O64  1  0.23056110  0.92970990  0.40787000  1
  O  O65  1  0.07029010  0.30085120  0.40787000  1
  O  O66  1  0.03248213  0.43610557  0.07453667  1
  O  O67  1  0.56389443  0.59637657  0.07453667  1
  O  O68  1  0.40362343  0.96751787  0.07453667  1
  O  O69  1  0.36581547  0.10277223  0.74120333  1
  O  O70  1  0.89722777  0.26304323  0.74120333  1
  O  O71  1  0.73695677  0.63418453  0.74120333  1
  C  C72  1  0.31734150  0.24746160  0.41935000  1
  C  C73  1  0.75253840  0.06987990  0.41935000  1
  C  C74  1  0.93012010  0.68265850  0.41935000  1
  C  C75  1  0.98400817  0.58079493  0.75268333  1
  C  C76  1  0.41920507  0.40321323  0.75268333  1
  C  C77  1  0.59678677  0.01599183  0.75268333  1
  C  C78  1  0.65067483  0.91412827  0.08601667  1
  C  C79  1  0.08587173  0.73654657  0.08601667  1
  C  C80  1  0.26345343  0.34932517  0.08601667  1
  C  C81  1  0.68265850  0.75253840  0.58065000  1
  C  C82  1  0.24746160  0.93012010  0.58065000  1
  C  C83  1  0.06987990  0.31734150  0.58065000  1
  C  C84  1  0.01599183  0.41920507  0.24731667  1
  C  C85  1  0.58079493  0.59678677  0.24731667  1
  C  C86  1  0.40321323  0.98400817  0.24731667  1
  C  C87  1  0.34932517  0.08587173  0.91398333  1
  C  C88  1  0.91412827  0.26345343  0.91398333  1
  C  C89  1  0.73654657  0.65067483  0.91398333  1
  C  C90  1  0.32229160  0.11137160  0.25045000  1
  C  C91  1  0.88862840  0.21092000  0.25045000  1
  C  C92  1  0.78908000  0.67770840  0.25045000  1
  C  C93  1  0.98895827  0.44470493  0.58378333  1
  C  C94  1  0.55529507  0.54425333  0.58378333  1
  C  C95  1  0.45574667  0.01104173  0.58378333  1
  C  C96  1  0.65562493  0.77803827  0.91711667  1
  C  C97  1  0.22196173  0.87758667  0.91711667  1
  C  C98  1  0.12241333  0.34437507  0.91711667  1
  C  C99  1  0.67770840  0.88862840  0.74955000  1
  C  C100  1  0.11137160  0.78908000  0.74955000  1
  C  C101  1  0.21092000  0.32229160  0.74955000  1
  C  C102  1  0.01104173  0.55529507  0.41621667  1
  C  C103  1  0.44470493  0.45574667  0.41621667  1
  C  C104  1  0.54425333  0.98895827  0.41621667  1
  C  C105  1  0.34437507  0.22196173  0.08288333  1
  C  C106  1  0.77803827  0.12241333  0.08288333  1
  C  C107  1  0.87758667  0.65562493  0.08288333  1
  C  C108  1  0.32767160  0.20838170  0.28395000  1
  C  C109  1  0.79161830  0.11928990  0.28395000  1
  C  C110  1  0.88071010  0.67232840  0.28395000  1
  C  C111  1  0.99433827  0.54171503  0.61728333  1
  C  C112  1  0.45828497  0.45262323  0.61728333  1
  C  C113  1  0.54737677  0.00566173  0.61728333  1
  C  C114  1  0.66100493  0.87504837  0.95061667  1
  C  C115  1  0.12495163  0.78595657  0.95061667  1
  C  C116  1  0.21404343  0.33899507  0.95061667  1
  C  C117  1  0.67232840  0.79161830  0.71605000  1
  C  C118  1  0.20838170  0.88071010  0.71605000  1
  C  C119  1  0.11928990  0.32767160  0.71605000  1
  C  C120  1  0.00566173  0.45828497  0.38271667  1
  C  C121  1  0.54171503  0.54737677  0.38271667  1
  C  C122  1  0.45262323  0.99433827  0.38271667  1
  C  C123  1  0.33899507  0.12495163  0.04938333  1
  C  C124  1  0.87504837  0.21404343  0.04938333  1
  C  C125  1  0.78595657  0.66100493  0.04938333  1
  C  C126  1  0.31720160  0.15396170  0.35905000  1
  C  C127  1  0.84603830  0.16323990  0.35905000  1
  C  C128  1  0.83676010  0.68279840  0.35905000  1
  C  C129  1  0.98386827  0.48729503  0.69238333  1
  C  C130  1  0.51270497  0.49657323  0.69238333  1
  C  C131  1  0.50342677  0.01613173  0.69238333  1
  C  C132  1  0.65053493  0.82062837  0.02571667  1
  C  C133  1  0.17937163  0.82990657  0.02571667  1
  C  C134  1  0.17009343  0.34946507  0.02571667  1
  C  C135  1  0.68279840  0.84603830  0.64095000  1
  C  C136  1  0.15396170  0.83676010  0.64095000  1
  C  C137  1  0.16323990  0.31720160  0.64095000  1
  C  C138  1  0.01613173  0.51270497  0.30761667  1
  C  C139  1  0.48729503  0.50342677  0.30761667  1
  C  C140  1  0.49657323  0.98386827  0.30761667  1
  C  C141  1  0.34946507  0.17937163  0.97428333  1
  C  C142  1  0.82062837  0.17009343  0.97428333  1
  C  C143  1  0.82990657  0.65053493  0.97428333  1
  H  H144  1  0.30587000  0.14546000  0.49279000  1
  H  H145  1  0.85454000  0.16041000  0.49279000  1
  H  H146  1  0.83959000  0.69413000  0.49279000  1
  H  H147  1  0.97253667  0.47879333  0.82612333  1
  H  H148  1  0.52120667  0.49374333  0.82612333  1
  H  H149  1  0.50625667  0.02746333  0.82612333  1
  H  H150  1  0.63920333  0.81212667  0.15945667  1
  H  H151  1  0.18787333  0.82707667  0.15945667  1
  H  H152  1  0.17292333  0.36079667  0.15945667  1
  H  H153  1  0.69413000  0.85454000  0.50721000  1
  H  H154  1  0.14546000  0.83959000  0.50721000  1
  H  H155  1  0.16041000  0.30587000  0.50721000  1
  H  H156  1  0.02746333  0.52120667  0.17387667  1
  H  H157  1  0.47879333  0.50625667  0.17387667  1
  H  H158  1  0.49374333  0.97253667  0.17387667  1
  H  H159  1  0.36079667  0.18787333  0.84054333  1
  H  H160  1  0.81212667  0.17292333  0.84054333  1
  H  H161  1  0.82707667  0.63920333  0.84054333  1
