# generated using pymatgen
data_V2CoH16C10N4O7
_symmetry_space_group_name_H-M   'P 1'
_cell_length_a   11.19270000
_cell_length_b   11.95280000
_cell_length_c   12.53880000
_cell_angle_alpha   90.00000000
_cell_angle_beta   90.00000000
_cell_angle_gamma   90.00000000
_symmetry_Int_Tables_number   1
_chemical_formula_structural   V2CoH16C10N4O7
_chemical_formula_sum   'V8 Co4 H64 C40 N16 O28'
_cell_volume   1677.49213026
_cell_formula_units_Z   4
loop_
 _symmetry_equiv_pos_site_id
 _symmetry_equiv_pos_as_xyz
  1  'x, y, z'
loop_
 _atom_site_type_symbol
 _atom_site_label
 _atom_site_symmetry_multiplicity
 _atom_site_fract_x
 _atom_site_fract_y
 _atom_site_fract_z
 _atom_site_occupancy
  V  V0  1  0.86609400  0.83007400  0.50775600  1
  V  V1  1  0.63390600  0.16992600  0.00775600  1
  V  V2  1  0.36609400  0.66992600  0.49224400  1
  V  V3  1  0.13390600  0.33007400  0.99224400  1
  V  V4  1  0.58169500  0.87120500  0.50460600  1
  V  V5  1  0.91830500  0.12879500  0.00460600  1
  V  V6  1  0.08169500  0.62879500  0.49539400  1
  V  V7  1  0.41830500  0.37120500  0.00000000  1
  Co  Co8  1  0.93072500  0.95514500  0.76719500  1
  Co  Co9  1  0.56927500  0.04485500  0.26719500  1
  Co  Co10  1  0.43072500  0.54485500  0.23280500  1
  Co  Co11  1  0.06927500  0.45514500  0.73280500  1
  C  C12  1  0.17404000  0.93895000  0.65334000  1
  C  C13  1  0.32596000  0.06105000  0.15334000  1
  C  C14  1  0.67404000  0.56105000  0.34666000  1
  C  C15  1  0.82596000  0.43895000  0.84666000  1
  H  H16  1  0.14830000  0.88310000  0.60720000  1
  H  H17  1  0.35170000  0.11690000  0.10720000  1
  H  H18  1  0.64830000  0.61690000  0.39280000  1
  H  H19  1  0.85170000  0.38310000  0.89280000  1
  C  C20  1  0.28394000  0.98306000  0.65534000  1
  C  C21  1  0.21606000  0.01694000  0.15534000  1
  C  C22  1  0.78394000  0.51694000  0.34466000  1
  C  C23  1  0.71606000  0.48306000  0.84466000  1
  H  H24  1  0.34770000  0.96330000  0.61170000  1
  H  H25  1  0.15230000  0.03670000  0.11170000  1
  H  H26  1  0.84770000  0.53670000  0.38830000  1
  H  H27  1  0.65230000  0.46330000  0.88830000  1
  C  C28  1  0.17514000  0.06314000  0.77584000  1
  C  C29  1  0.32486000  0.93686000  0.27584000  1
  C  C30  1  0.67514000  0.43686000  0.22416000  1
  C  C31  1  0.82486000  0.56314000  0.72416000  1
  H  H32  1  0.15190000  0.11020000  0.83110000  1
  H  H33  1  0.34810000  0.88980000  0.33110000  1
  H  H34  1  0.65190000  0.38980000  0.16890000  1
  H  H35  1  0.84810000  0.61020000  0.66890000  1
  C  C36  1  0.38794000  0.13265000  0.76074000  1
  C  C37  1  0.11206000  0.86735000  0.26074000  1
  C  C38  1  0.88794000  0.36735000  0.23926000  1
  C  C39  1  0.61206000  0.63265000  0.73926000  1
  H  H40  1  0.45660000  0.08510000  0.77410000  1
  H  H41  1  0.04340000  0.91490000  0.27410000  1
  H  H42  1  0.95660000  0.41490000  0.22590000  1
  H  H43  1  0.54340000  0.58510000  0.72590000  1
  H  H44  1  0.37010000  0.17280000  0.82600000  1
  H  H45  1  0.12990000  0.82720000  0.32600000  1
  H  H46  1  0.87010000  0.32720000  0.17400000  1
  H  H47  1  0.62990000  0.67280000  0.67400000  1
  C  C48  1  0.41845000  0.21405000  0.67615000  1
  C  C49  1  0.08155000  0.78595000  0.17615000  1
  C  C50  1  0.91845000  0.28595000  0.32385000  1
  C  C51  1  0.58155000  0.71405000  0.82385000  1
  H  H52  1  0.36010000  0.27400000  0.67710000  1
  H  H53  1  0.13990000  0.72600000  0.17710000  1
  H  H54  1  0.86010000  0.22600000  0.32290000  1
  H  H55  1  0.63990000  0.77400000  0.82290000  1
  H  H56  1  0.41290000  0.17710000  0.60740000  1
  H  H57  1  0.08710000  0.82290000  0.10740000  1
  H  H58  1  0.91290000  0.32290000  0.39260000  1
  H  H59  1  0.58710000  0.67710000  0.89260000  1
  C  C60  1  0.54205000  0.26405000  0.68755000  1
  C  C61  1  0.95795000  0.73595000  0.18755000  1
  C  C62  1  0.04205000  0.23595000  0.31245000  1
  C  C63  1  0.45795000  0.76405000  0.81245000  1
  H  H64  1  0.54580000  0.30450000  0.75450000  1
  H  H65  1  0.95420000  0.69550000  0.25450000  1
  H  H66  1  0.04580000  0.19550000  0.24550000  1
  H  H67  1  0.45420000  0.80450000  0.74550000  1
  H  H68  1  0.59970000  0.20350000  0.69120000  1
  H  H69  1  0.90030000  0.79650000  0.19120000  1
  H  H70  1  0.09970000  0.29650000  0.30880000  1
  H  H71  1  0.40030000  0.70350000  0.80880000  1
  C  C72  1  0.57727000  0.34025000  0.60105000  1
  C  C73  1  0.92273000  0.65975000  0.10105000  1
  C  C74  1  0.07727000  0.15975000  0.39895000  1
  C  C75  1  0.42273000  0.84025000  0.89895000  1
  H  H76  1  0.53420000  0.41020000  0.60910000  1
  H  H77  1  0.96580000  0.58980000  0.10910000  1
  H  H78  1  0.03420000  0.08980000  0.39090000  1
  H  H79  1  0.46580000  0.91020000  0.89090000  1
  H  H80  1  0.66190000  0.35640000  0.60750000  1
  H  H81  1  0.83810000  0.64360000  0.10750000  1
  H  H82  1  0.16190000  0.14360000  0.39250000  1
  H  H83  1  0.33810000  0.85640000  0.89250000  1
  C  C84  1  0.59755000  0.20705000  0.44925000  1
  C  C85  1  0.90245000  0.79295000  0.94925000  1
  C  C86  1  0.09755000  0.29295000  0.55075000  1
  C  C87  1  0.40245000  0.70705000  0.05075000  1
  H  H88  1  0.65970000  0.16510000  0.47800000  1
  H  H89  1  0.84030000  0.83490000  0.97800000  1
  H  H90  1  0.15970000  0.33490000  0.52200000  1
  H  H91  1  0.34030000  0.66510000  0.02200000  1
  C  C92  1  0.46167000  0.26385000  0.34655000  1
  C  C93  1  0.03833000  0.73615000  0.84655000  1
  C  C94  1  0.96167000  0.23615000  0.65345000  1
  C  C95  1  0.53833000  0.76385000  0.15345000  1
  H  H96  1  0.41010000  0.26920000  0.28850000  1
  H  H97  1  0.08990000  0.73080000  0.78850000  1
  H  H98  1  0.91010000  0.23080000  0.71150000  1
  H  H99  1  0.58990000  0.76920000  0.21150000  1
  C  C100  1  0.46467000  0.33475000  0.43105000  1
  C  C101  1  0.03533000  0.66525000  0.93105000  1
  C  C102  1  0.96467000  0.16525000  0.56895000  1
  C  C103  1  0.53533000  0.83475000  0.06895000  1
  H  H104  1  0.41590000  0.39670000  0.44230000  1
  H  H105  1  0.08410000  0.60330000  0.94230000  1
  H  H106  1  0.91590000  0.10330000  0.55770000  1
  H  H107  1  0.58410000  0.89670000  0.05770000  1
  N  N108  1  0.10523000  0.98957000  0.73033000  1
  N  N109  1  0.39477000  0.01043000  0.23033000  1
  N  N110  1  0.60523000  0.51043000  0.26967000  1
  N  N111  1  0.89477000  0.48957000  0.76967000  1
  N  N112  1  0.28473000  0.06173000  0.73243000  1
  N  N113  1  0.21527000  0.93827000  0.23243000  1
  N  N114  1  0.78473000  0.43827000  0.26757000  1
  N  N115  1  0.71527000  0.56173000  0.76757000  1
  N  N116  1  0.55455000  0.29644000  0.49664000  1
  N  N117  1  0.94545000  0.70356000  0.00000000  1
  N  N118  1  0.05455000  0.20356000  0.50336000  1
  N  N119  1  0.44545000  0.79644000  0.00336000  1
  N  N120  1  0.54834000  0.18184000  0.36094000  1
  N  N121  1  0.95166000  0.81816000  0.86094000  1
  N  N122  1  0.04834000  0.31816000  0.63906000  1
  N  N123  1  0.45166000  0.68184000  0.13906000  1
  O  O124  1  0.90557000  0.87327000  0.62703000  1
  O  O125  1  0.59443000  0.12673000  0.12703000  1
  O  O126  1  0.40557000  0.62673000  0.37297000  1
  O  O127  1  0.09443000  0.37327000  0.87297000  1
  O  O128  1  0.87907000  0.93317000  0.42353000  1
  O  O129  1  0.62093000  0.06683000  0.92353000  1
  O  O130  1  0.37907000  0.56683000  0.57647000  1
  O  O131  1  0.12093000  0.43317000  0.07647000  1
  O  O132  1  0.71328000  0.78688000  0.51093000  1
  O  O133  1  0.78672000  0.21312000  0.01093000  1
  O  O134  1  0.21328000  0.71312000  0.48907000  1
  O  O135  1  0.28672000  0.28688000  0.98907000  1
  O  O136  1  0.95548000  0.71437000  0.46612000  1
  O  O137  1  0.54452000  0.28563000  0.96612000  1
  O  O138  1  0.45548000  0.78563000  0.53388000  1
  O  O139  1  0.04452000  0.21437000  0.03388000  1
  O  O140  1  0.59107000  0.96847000  0.59482000  1
  O  O141  1  0.90893000  0.03153000  0.09482000  1
  O  O142  1  0.09107000  0.53153000  0.40518000  1
  O  O143  1  0.40893000  0.46847000  0.90518000  1
  O  O144  1  0.56837000  0.92847000  0.38572000  1
  O  O145  1  0.93163000  0.07153000  0.88572000  1
  O  O146  1  0.06837000  0.57153000  0.61428000  1
  O  O147  1  0.43163000  0.42847000  0.11428000  1
