# generated using pymatgen
data_Zr3H14(C3O2)8
_symmetry_space_group_name_H-M   'P 1'
_cell_length_a   14.50863000
_cell_length_b   14.50863000
_cell_length_c   14.50863000
_cell_angle_alpha   60.00000000
_cell_angle_beta   60.00000000
_cell_angle_gamma   60.00000000
_symmetry_Int_Tables_number   1
_chemical_formula_structural   Zr3H14(C3O2)8
_chemical_formula_sum   'Zr6 H28 C48 O32'
_cell_volume   2159.55474770
_cell_formula_units_Z   2
loop_
 _symmetry_equiv_pos_site_id
 _symmetry_equiv_pos_as_xyz
  1  'x, y, z'
loop_
 _atom_site_type_symbol
 _atom_site_label
 _atom_site_symmetry_multiplicity
 _atom_site_fract_x
 _atom_site_fract_y
 _atom_site_fract_z
 _atom_site_occupancy
  Zr  Zr1  1  0.12075600  0.87924400  0.87924400  1.0
  Zr  Zr2  1  0.87924400  0.12075600  0.12075600  1.0
  Zr  Zr3  1  0.12075600  0.12075600  0.87924400  1.0
  Zr  Zr4  1  0.87924400  0.87924400  0.12075600  1.0
  Zr  Zr5  1  0.12075600  0.87924400  0.12075600  1.0
  Zr  Zr6  1  0.87924400  0.12075600  0.87924400  1.0
  H  H1  1  0.14033900  0.59528900  0.84478300  1.0
  H  H2  1  0.59528800  0.14034000  0.41958900  1.0
  H  H3  1  0.41958800  0.84478300  0.59528900  1.0
  H  H4  1  0.84478200  0.41958900  0.14034000  1.0
  H  H5  1  0.14033900  0.41958900  0.59528900  1.0
  H  H6  1  0.59528800  0.84478300  0.14034000  1.0
  H  H7  1  0.41958800  0.14034000  0.84478300  1.0
  H  H8  1  0.84478200  0.59528900  0.41958900  1.0
  H  H9  1  0.14033900  0.84478300  0.41958900  1.0
  H  H10  1  0.59528800  0.41958900  0.84478300  1.0
  H  H11  1  0.41958800  0.59528900  0.14034000  1.0
  H  H12  1  0.84478200  0.14034000  0.59528900  1.0
  H  H13  1  0.14033900  0.59528900  0.41958900  1.0
  H  H14  1  0.59528800  0.14034000  0.84478300  1.0
  H  H15  1  0.41958800  0.84478300  0.14034000  1.0
  H  H16  1  0.84478200  0.41958900  0.59528900  1.0
  H  H17  1  0.14033900  0.41958900  0.84478300  1.0
  H  H18  1  0.59528800  0.84478300  0.41958900  1.0
  H  H19  1  0.41958800  0.14034000  0.59528900  1.0
  H  H20  1  0.84478200  0.59528900  0.14034000  1.0
  H  H21  1  0.14033900  0.84478300  0.59528900  1.0
  H  H22  1  0.59528800  0.41958900  0.14034000  1.0
  H  H23  1  0.41958800  0.59528900  0.84478300  1.0
  H  H24  1  0.84478200  0.14034000  0.41958900  1.0
  H  H25  1  0.09526400  0.71420800  0.09526400  1.0
  H  H26  1  0.71420800  0.09526400  0.09526400  1.0
  H  H27  1  0.09526400  0.09526400  0.71420800  1.0
  H  H28  1  0.09526400  0.09526400  0.09526400  1.0
  C  C1  1  0.07626700  0.55544700  0.90801200  1.0
  C  C2  1  0.55544700  0.07626700  0.46027400  1.0
  C  C3  1  0.46027400  0.90801200  0.55544700  1.0
  C  C4  1  0.90801200  0.46027400  0.07626700  1.0
  C  C5  1  0.07626700  0.46027400  0.55544700  1.0
  C  C6  1  0.55544700  0.90801200  0.07626700  1.0
  C  C7  1  0.46027400  0.07626700  0.90801200  1.0
  C  C8  1  0.90801200  0.55544700  0.46027400  1.0
  C  C9  1  0.07626700  0.90801200  0.46027400  1.0
  C  C10  1  0.55544700  0.46027400  0.90801200  1.0
  C  C11  1  0.46027400  0.55544700  0.07626700  1.0
  C  C12  1  0.90801200  0.07626700  0.55544700  1.0
  C  C13  1  0.07626700  0.55544700  0.46027400  1.0
  C  C14  1  0.55544700  0.07626700  0.90801200  1.0
  C  C15  1  0.46027400  0.90801200  0.07626700  1.0
  C  C16  1  0.90801200  0.46027400  0.55544700  1.0
  C  C17  1  0.07626700  0.46027400  0.90801200  1.0
  C  C18  1  0.55544700  0.90801200  0.46027400  1.0
  C  C19  1  0.46027400  0.07626700  0.55544700  1.0
  C  C20  1  0.90801200  0.55544700  0.07626700  1.0
  C  C21  1  0.07626700  0.90801200  0.55544700  1.0
  C  C22  1  0.55544700  0.46027400  0.07626700  1.0
  C  C23  1  0.46027400  0.55544700  0.90801200  1.0
  C  C24  1  0.90801200  0.07626700  0.46027400  1.0
  C  C25  1  0.30902300  0.99547100  0.70003500  1.0
  C  C26  1  0.99547100  0.30902300  0.99547100  1.0
  C  C27  1  0.99547100  0.70003500  0.99547100  1.0
  C  C28  1  0.70003500  0.99547100  0.30902300  1.0
  C  C29  1  0.30902300  0.99547100  0.99547100  1.0
  C  C30  1  0.99547100  0.70003500  0.30902300  1.0
  C  C31  1  0.99547100  0.30902300  0.70003500  1.0
  C  C32  1  0.70003500  0.99547100  0.99547100  1.0
  C  C33  1  0.30902300  0.70003500  0.99547100  1.0
  C  C34  1  0.99547100  0.99547100  0.70003500  1.0
  C  C35  1  0.99547100  0.99547100  0.30902300  1.0
  C  C36  1  0.70003500  0.30902300  0.99547100  1.0
  C  C37  1  0.99258900  0.60164200  0.99258900  1.0
  C  C38  1  0.60164200  0.99258900  0.41318000  1.0
  C  C39  1  0.41318000  0.99258900  0.60164200  1.0
  C  C40  1  0.99258900  0.41318000  0.99258900  1.0
  C  C41  1  0.99258900  0.41318000  0.60164200  1.0
  C  C42  1  0.60164200  0.99258900  0.99258900  1.0
  C  C43  1  0.41318000  0.99258900  0.99258900  1.0
  C  C44  1  0.99258900  0.60164200  0.41318000  1.0
  C  C45  1  0.99258900  0.99258900  0.41318000  1.0
  C  C46  1  0.60164200  0.41318000  0.99258900  1.0
  C  C47  1  0.41318000  0.60164200  0.99258900  1.0
  C  C48  1  0.99258900  0.99258900  0.60164200  1.0
  O  O1  1  0.07559700  0.73748300  0.91891800  1.0
  O  O2  1  0.73748300  0.07559700  0.26800200  1.0
  O  O3  1  0.26800200  0.91891800  0.73748300  1.0
  O  O4  1  0.91891800  0.26800200  0.07559700  1.0
  O  O5  1  0.07559700  0.26800200  0.73748300  1.0
  O  O6  1  0.73748300  0.91891800  0.07559700  1.0
  O  O7  1  0.26800200  0.07559700  0.91891800  1.0
  O  O8  1  0.91891800  0.73748300  0.26800200  1.0
  O  O9  1  0.07559700  0.91891800  0.26800200  1.0
  O  O10  1  0.73748300  0.26800200  0.91891800  1.0
  O  O11  1  0.26800200  0.73748300  0.07559700  1.0
  O  O12  1  0.91891800  0.07559700  0.73748300  1.0
  O  O13  1  0.07559700  0.73748300  0.26800200  1.0
  O  O14  1  0.73748300  0.07559700  0.91891800  1.0
  O  O15  1  0.26800200  0.91891800  0.07559700  1.0
  O  O16  1  0.91891800  0.26800200  0.73748300  1.0
  O  O17  1  0.07559700  0.26800200  0.91891800  1.0
  O  O18  1  0.73748300  0.91891800  0.26800200  1.0
  O  O19  1  0.26800200  0.07559700  0.73748300  1.0
  O  O20  1  0.91891800  0.73748300  0.07559700  1.0
  O  O21  1  0.07559700  0.91891800  0.73748300  1.0
  O  O22  1  0.73748300  0.26800200  0.07559700  1.0
  O  O23  1  0.26800200  0.73748300  0.91891800  1.0
  O  O24  1  0.91891800  0.07559700  0.26800200  1.0
  O  O25  1  0.06789600  0.06789700  0.79631000  1.0
  O  O26  1  0.06789600  0.06789700  0.06789700  1.0
  O  O27  1  0.06789600  0.79631000  0.06789700  1.0
  O  O28  1  0.79630900  0.06789700  0.06789700  1.0
  O  O29  1  0.94892600  0.94892600  0.15322200  1.0
  O  O30  1  0.94892600  0.94892600  0.94892600  1.0
  O  O31  1  0.94892600  0.15322200  0.94892600  1.0
  O  O32  1  0.15322200  0.94892600  0.94892600  1.0
