# generated using pymatgen
data_SrH8C6N8O5
_symmetry_space_group_name_H-M   'P 1'
_cell_length_a   10.46247000
_cell_length_b   24.30881500
_cell_length_c   8.49275000
_cell_angle_alpha   90.00000000
_cell_angle_beta   90.00000000
_cell_angle_gamma   90.00000000
_symmetry_Int_Tables_number   1
_chemical_formula_structural   SrH8C6N8O5
_chemical_formula_sum   'Sr8 H64 C48 N64 O40'
_cell_volume   2159.96321093
_cell_formula_units_Z   8
loop_
 _symmetry_equiv_pos_site_id
 _symmetry_equiv_pos_as_xyz
  1  'x, y, z'
loop_
 _atom_site_type_symbol
 _atom_site_label
 _atom_site_symmetry_multiplicity
 _atom_site_fract_x
 _atom_site_fract_y
 _atom_site_fract_z
 _atom_site_occupancy
  Sr  Sr0  1  0.25000000  0.25000000  0.71970400  1
  Sr  Sr1  1  0.75000000  0.75000000  0.71970400  1
  Sr  Sr2  1  0.50000000  0.00000000  0.96970400  1
  Sr  Sr3  1  0.00000000  0.50000000  0.96970400  1
  Sr  Sr4  1  0.25000000  0.75000000  0.21970400  1
  Sr  Sr5  1  0.75000000  0.25000000  0.21970400  1
  Sr  Sr6  1  0.50000000  0.50000000  0.46970400  1
  Sr  Sr7  1  0.00000000  0.00000000  0.46970400  1
  N  N8  1  0.08618170  0.18763700  0.89424190  1
  N  N9  1  0.91381830  0.81236300  0.89424190  1
  N  N10  1  0.33618170  0.06236300  0.14424190  1
  N  N11  1  0.16381830  0.43763700  0.14424190  1
  N  N12  1  0.08618170  0.68763700  0.39424190  1
  N  N13  1  0.91381830  0.31236300  0.39424190  1
  N  N14  1  0.33618170  0.56236300  0.64424190  1
  N  N15  1  0.16381830  0.93763700  0.64424190  1
  N  N16  1  0.58618170  0.18763700  0.39424190  1
  N  N17  1  0.41381830  0.81236300  0.39424190  1
  N  N18  1  0.83618170  0.06236300  0.64424190  1
  N  N19  1  0.66381830  0.43763700  0.64424190  1
  N  N20  1  0.58618170  0.68763700  0.89424190  1
  N  N21  1  0.41381830  0.31236300  0.89424190  1
  N  N22  1  0.83618170  0.56236300  0.14424190  1
  N  N23  1  0.66381830  0.93763700  0.14424190  1
  N  N24  1  0.04965180  0.09935600  0.96762000  1
  N  N25  1  0.95034820  0.90064400  0.96762000  1
  N  N26  1  0.29965180  0.15064400  0.21762000  1
  N  N27  1  0.20034820  0.34935600  0.21762000  1
  N  N28  1  0.04965180  0.59935600  0.46762000  1
  N  N29  1  0.95034820  0.40064400  0.46762000  1
  N  N30  1  0.29965180  0.65064400  0.71762000  1
  N  N31  1  0.20034820  0.84935600  0.71762000  1
  N  N32  1  0.54965180  0.09935600  0.46762000  1
  N  N33  1  0.45034820  0.90064400  0.46762000  1
  N  N34  1  0.79965180  0.15064400  0.71762000  1
  N  N35  1  0.70034820  0.34935600  0.71762000  1
  N  N36  1  0.54965180  0.59935600  0.96762000  1
  N  N37  1  0.45034820  0.40064400  0.96762000  1
  N  N38  1  0.79965180  0.65064400  0.21762000  1
  N  N39  1  0.70034820  0.84935600  0.21762000  1
  N  N40  1  0.01507170  0.13510800  0.08442000  1
  N  N41  1  0.98492830  0.86489200  0.08442000  1
  N  N42  1  0.26507170  0.11489200  0.33442000  1
  N  N43  1  0.23492830  0.38510800  0.33442000  1
  N  N44  1  0.01507170  0.63510800  0.58442000  1
  N  N45  1  0.98492830  0.36489200  0.58442000  1
  N  N46  1  0.26507170  0.61489200  0.83442000  1
  N  N47  1  0.23492830  0.88510800  0.83442000  1
  N  N48  1  0.51507170  0.13510800  0.58442000  1
  N  N49  1  0.48492830  0.86489200  0.58442000  1
  N  N50  1  0.76507170  0.11489200  0.83442000  1
  N  N51  1  0.73492830  0.38510800  0.83442000  1
  N  N52  1  0.51507170  0.63510800  0.08442000  1
  N  N53  1  0.48492830  0.36489200  0.08442000  1
  N  N54  1  0.76507170  0.61489200  0.33442000  1
  N  N55  1  0.73492830  0.88510800  0.33442000  1
  N  N56  1  0.01074190  0.23207900  0.12953000  1
  N  N57  1  0.98925810  0.76792100  0.12953000  1
  N  N58  1  0.26074190  0.01792100  0.37953000  1
  N  N59  1  0.23925810  0.48207900  0.37953000  1
  N  N60  1  0.01074190  0.73207900  0.62953000  1
  N  N61  1  0.98925810  0.26792100  0.62953000  1
  N  N62  1  0.26074190  0.51792100  0.87953000  1
  N  N63  1  0.23925810  0.98207900  0.87953000  1
  N  N64  1  0.51074190  0.23207900  0.62953000  1
  N  N65  1  0.48925810  0.76792100  0.62953000  1
  N  N66  1  0.76074190  0.01792100  0.87953000  1
  N  N67  1  0.73925810  0.48207900  0.87953000  1
  N  N68  1  0.51074190  0.73207900  0.12953000  1
  N  N69  1  0.48925810  0.26792100  0.12953000  1
  N  N70  1  0.76074190  0.51792100  0.37953000  1
  N  N71  1  0.73925810  0.98207900  0.37953000  1
  O  O72  1  0.19081160  0.15265500  0.61816190  1
  O  O73  1  0.80918840  0.84734500  0.61816190  1
  O  O74  1  0.44081160  0.09734500  0.86816190  1
  O  O75  1  0.05918840  0.40265500  0.86816190  1
  O  O76  1  0.19081160  0.65265500  0.11816190  1
  O  O77  1  0.80918840  0.34734500  0.11816190  1
  O  O78  1  0.44081160  0.59734500  0.36816190  1
  O  O79  1  0.05918840  0.90265500  0.36816190  1
  O  O80  1  0.69081160  0.15265500  0.11816190  1
  O  O81  1  0.30918840  0.84734500  0.11816190  1
  O  O82  1  0.94081160  0.09734500  0.36816190  1
  O  O83  1  0.55918840  0.40265500  0.36816190  1
  O  O84  1  0.69081160  0.65265500  0.61816190  1
  O  O85  1  0.30918840  0.34734500  0.61816190  1
  O  O86  1  0.94081160  0.59734500  0.86816190  1
  O  O87  1  0.55918840  0.90265500  0.86816190  1
  O  O88  1  0.13261160  0.06544600  0.66182160  1
  O  O89  1  0.86738840  0.93455400  0.66182160  1
  O  O90  1  0.38261160  0.18455400  0.91182160  1
  O  O91  1  0.11738840  0.31544600  0.91182160  1
  O  O92  1  0.13261160  0.56544600  0.16182160  1
  O  O93  1  0.86738840  0.43455400  0.16182160  1
  O  O94  1  0.38261160  0.68455400  0.41182160  1
  O  O95  1  0.11738840  0.81544600  0.41182160  1
  O  O96  1  0.63261160  0.06544600  0.16182160  1
  O  O97  1  0.36738840  0.93455400  0.16182160  1
  O  O98  1  0.88261160  0.18455400  0.41182160  1
  O  O99  1  0.61738840  0.31544600  0.41182160  1
  O  O100  1  0.63261160  0.56544600  0.66182160  1
  O  O101  1  0.36738840  0.43455400  0.66182160  1
  O  O102  1  0.88261160  0.68455400  0.91182160  1
  O  O103  1  0.61738840  0.81544600  0.91182160  1
  C  C112  1  0.03929190  0.18679800  0.03902000  1
  C  C113  1  0.96070810  0.81320200  0.03902000  1
  C  C114  1  0.28929190  0.06320200  0.28902000  1
  C  C115  1  0.21070810  0.43679800  0.28902000  1
  C  C116  1  0.03929190  0.68679800  0.53902000  1
  C  C117  1  0.96070810  0.31320200  0.53902000  1
  C  C118  1  0.28929190  0.56320200  0.78902000  1
  C  C119  1  0.21070810  0.93679800  0.78902000  1
  C  C120  1  0.53929190  0.18679800  0.53902000  1
  C  C121  1  0.46070810  0.81320200  0.53902000  1
  C  C122  1  0.78929190  0.06320200  0.78902000  1
  C  C123  1  0.71070810  0.43679800  0.78902000  1
  C  C124  1  0.53929190  0.68679800  0.03902000  1
  C  C125  1  0.46070810  0.31320200  0.03902000  1
  C  C126  1  0.78929190  0.56320200  0.28902000  1
  C  C127  1  0.71070810  0.93679800  0.28902000  1
  C  C128  1  0.09072000  0.13320700  0.85602000  1
  C  C129  1  0.90928000  0.86679300  0.85602000  1
  C  C130  1  0.34072000  0.11679300  0.10602000  1
  C  C131  1  0.15928000  0.38320700  0.10602000  1
  C  C132  1  0.09072000  0.63320700  0.35602000  1
  C  C133  1  0.90928000  0.36679300  0.35602000  1
  C  C134  1  0.34072000  0.61679300  0.60602000  1
  C  C135  1  0.15928000  0.88320700  0.60602000  1
  C  C136  1  0.59072000  0.13320700  0.35602000  1
  C  C137  1  0.40928000  0.86679300  0.35602000  1
  C  C138  1  0.84072000  0.11679300  0.60602000  1
  C  C139  1  0.65928000  0.38320700  0.60602000  1
  C  C140  1  0.59072000  0.63320700  0.85602000  1
  C  C141  1  0.40928000  0.36679300  0.85602000  1
  C  C142  1  0.84072000  0.61679300  0.10602000  1
  C  C143  1  0.65928000  0.88320700  0.10602000  1
  C  C144  1  0.14192000  0.11471800  0.70032000  1
  C  C145  1  0.85808000  0.88528200  0.70032000  1
  C  C146  1  0.39192000  0.13528200  0.95032000  1
  C  C147  1  0.10808000  0.36471800  0.95032000  1
  C  C148  1  0.14192000  0.61471800  0.20032000  1
  C  C149  1  0.85808000  0.38528200  0.20032000  1
  C  C150  1  0.39192000  0.63528200  0.45032000  1
  C  C151  1  0.10808000  0.86471800  0.45032000  1
  C  C152  1  0.64192000  0.11471800  0.20032000  1
  C  C153  1  0.35808000  0.88528200  0.20032000  1
  C  C154  1  0.89192000  0.13528200  0.45032000  1
  C  C155  1  0.60808000  0.36471800  0.45032000  1
  C  C156  1  0.64192000  0.61471800  0.70032000  1
  C  C157  1  0.35808000  0.38528200  0.70032000  1
  C  C158  1  0.89192000  0.63528200  0.95032000  1
  C  C159  1  0.60808000  0.86471800  0.95032000  1
  H  H160  1  0.98980000  0.12281400  0.17940000  1
  H  H161  1  0.01020000  0.87718600  0.17940000  1
  H  H162  1  0.23980000  0.12718600  0.42940000  1
  H  H163  1  0.26020000  0.37281400  0.42940000  1
  H  H164  1  0.98980000  0.62281400  0.67940000  1
  H  H165  1  0.01020000  0.37718600  0.67940000  1
  H  H166  1  0.23980000  0.62718600  0.92940000  1
  H  H167  1  0.26020000  0.87281400  0.92940000  1
  H  H168  1  0.48980000  0.12281400  0.67940000  1
  H  H169  1  0.51020000  0.87718600  0.67940000  1
  H  H170  1  0.73980000  0.12718600  0.92940000  1
  H  H171  1  0.76020000  0.37281400  0.92940000  1
  H  H172  1  0.48980000  0.62281400  0.17940000  1
  H  H173  1  0.51020000  0.37718600  0.17940000  1
  H  H174  1  0.73980000  0.62718600  0.42940000  1
  H  H175  1  0.76020000  0.87281400  0.42940000  1
  H  H176  1  0.05130000  0.26291100  0.08540000  1
  H  H177  1  0.94870000  0.73708900  0.08540000  1
  H  H178  1  0.30130000  0.98708900  0.33540000  1
  H  H179  1  0.19870000  0.51291100  0.33540000  1
  H  H180  1  0.05130000  0.76291100  0.58540000  1
  H  H181  1  0.94870000  0.23708900  0.58540000  1
  H  H182  1  0.30130000  0.48708900  0.83540000  1
  H  H183  1  0.19870000  0.01291100  0.83540000  1
  H  H184  1  0.55130000  0.26291100  0.58540000  1
  H  H185  1  0.44870000  0.73708900  0.58540000  1
  H  H186  1  0.80130000  0.98708900  0.83540000  1
  H  H187  1  0.69870000  0.51291100  0.83540000  1
  H  H188  1  0.55130000  0.76291100  0.08540000  1
  H  H189  1  0.44870000  0.23708900  0.08540000  1
  H  H190  1  0.80130000  0.48708900  0.33540000  1
  H  H191  1  0.69870000  0.01291100  0.33540000  1
  H  H192  1  0.02430000  0.22791300  0.22450000  1
  H  H193  1  0.97570000  0.77208700  0.22450000  1
  H  H194  1  0.27430000  0.02208700  0.47450000  1
  H  H195  1  0.22570000  0.47791300  0.47450000  1
  H  H196  1  0.02430000  0.72791300  0.72450000  1
  H  H197  1  0.97570000  0.27208700  0.72450000  1
  H  H198  1  0.27430000  0.52208700  0.97450000  1
  H  H199  1  0.22570000  0.97791300  0.97450000  1
  H  H200  1  0.52430000  0.22791300  0.72450000  1
  H  H201  1  0.47570000  0.77208700  0.72450000  1
  H  H202  1  0.77430000  0.02208700  0.97450000  1
  H  H203  1  0.72570000  0.47791300  0.97450000  1
  H  H204  1  0.52430000  0.72791300  0.22450000  1
  H  H205  1  0.47570000  0.27208700  0.22450000  1
  H  H206  1  0.77430000  0.52208700  0.47450000  1
  H  H207  1  0.72570000  0.97791300  0.47450000  1
