# generated using pymatgen
data_UH2C(OF)3
_symmetry_space_group_name_H-M   'P 1'
_cell_length_a   17.24630000
_cell_length_b   6.08821200
_cell_length_c   8.58921700
_cell_angle_alpha   90.00000000
_cell_angle_beta   95.42300000
_cell_angle_gamma   90.00000000
_symmetry_Int_Tables_number   1
_chemical_formula_structural   UH2C(OF)3
_chemical_formula_sum   'U8 H16 C8 O24 F24'
_cell_volume   897.82368729
_cell_formula_units_Z   8
loop_
 _symmetry_equiv_pos_site_id
 _symmetry_equiv_pos_as_xyz
  1  'x, y, z'
loop_
 _atom_site_type_symbol
 _atom_site_label
 _atom_site_symmetry_multiplicity
 _atom_site_fract_x
 _atom_site_fract_y
 _atom_site_fract_z
 _atom_site_occupancy
  U  U0  1  0.32749711  0.38505300  0.36782200  1
  U  U1  1  0.82749711  0.88505300  0.36782200  1
  U  U2  1  0.67250289  0.38505300  0.13217800  1
  U  U3  1  0.17250289  0.88505300  0.13217800  1
  U  U4  1  0.67250289  0.61494700  0.63217800  1
  U  U5  1  0.17250289  0.11494700  0.63217800  1
  U  U6  1  0.32749711  0.61494700  0.86782200  1
  U  U7  1  0.82749711  0.11494700  0.86782200  1
  F  F8  1  0.26642190  0.70345000  0.29074000  1
  F  F9  1  0.76642190  0.20345000  0.29074000  1
  F  F10  1  0.73357810  0.70345000  0.20926000  1
  F  F11  1  0.23357810  0.20345000  0.20926000  1
  F  F12  1  0.73357810  0.29655000  0.70926000  1
  F  F13  1  0.23357810  0.79655000  0.70926000  1
  F  F14  1  0.26642190  0.29655000  0.79074000  1
  F  F15  1  0.76642190  0.79655000  0.79074000  1
  F  F16  1  0.29722000  0.09344000  0.52074000  1
  F  F17  1  0.79722000  0.59344000  0.52074000  1
  F  F18  1  0.70278000  0.09344000  0.97926000  1
  F  F19  1  0.20278000  0.59344000  0.97926000  1
  F  F20  1  0.70278000  0.90656000  0.47926000  1
  F  F21  1  0.20278000  0.40656000  0.47926000  1
  F  F22  1  0.29722000  0.90656000  0.02074000  1
  F  F23  1  0.79722000  0.40656000  0.02074000  1
  F  F24  1  0.34520190  0.54665000  0.61043000  1
  F  F25  1  0.84520190  0.04665000  0.61043000  1
  F  F26  1  0.65479810  0.54665000  0.88957000  1
  F  F27  1  0.15479810  0.04665000  0.88957000  1
  F  F28  1  0.65479810  0.45335000  0.38957000  1
  F  F29  1  0.15479810  0.95335000  0.38957000  1
  F  F30  1  0.34520190  0.45335000  0.11043000  1
  F  F31  1  0.84520190  0.95335000  0.11043000  1
  O  O32  1  0.44842000  0.25456000  0.51285000  1
  O  O33  1  0.94842000  0.75456000  0.51285000  1
  O  O34  1  0.55158000  0.25456000  0.98715000  1
  O  O35  1  0.05158000  0.75456000  0.98715000  1
  O  O36  1  0.55158000  0.74544000  0.48715000  1
  O  O37  1  0.05158000  0.24544000  0.48715000  1
  O  O38  1  0.44842000  0.74544000  0.01285000  1
  O  O39  1  0.94842000  0.24544000  0.01285000  1
  O  O40  1  0.56582000  0.35346000  0.63045000  1
  O  O41  1  0.06582000  0.85346000  0.63045000  1
  O  O42  1  0.43418000  0.35346000  0.86955000  1
  O  O43  1  0.93418000  0.85346000  0.86955000  1
  O  O44  1  0.43418000  0.64654000  0.36955000  1
  O  O45  1  0.93418000  0.14654000  0.36955000  1
  O  O46  1  0.56582000  0.64654000  0.13045000  1
  O  O47  1  0.06582000  0.14654000  0.13045000  1
  C  C48  1  0.50454000  0.38678000  0.54167000  1
  C  C49  1  0.00454000  0.88678000  0.54167000  1
  C  C50  1  0.49546000  0.38678000  0.95833000  1
  C  C51  1  0.00000000  0.88678000  0.95833000  1
  C  C52  1  0.49546000  0.61322000  0.45833000  1
  C  C53  1  0.00000000  0.11322000  0.45833000  1
  C  C54  1  0.50454000  0.61322000  0.04167000  1
  C  C55  1  0.00454000  0.11322000  0.04167000  1
