# generated using pymatgen
data_Tm2H3(C3O5)5
_symmetry_space_group_name_H-M   'P 1'
_cell_length_a   10.28502000
_cell_length_b   11.57173000
_cell_length_c   13.51144000
_cell_angle_alpha   85.58110000
_cell_angle_beta   69.20910000
_cell_angle_gamma   63.75510000
_symmetry_Int_Tables_number   1
_chemical_formula_structural   Tm2H3(C3O5)5
_chemical_formula_sum   'Tm4 H6 C30 O50'
_cell_volume   1342.24012334
_cell_formula_units_Z   2
loop_
 _symmetry_equiv_pos_site_id
 _symmetry_equiv_pos_as_xyz
  1  'x, y, z'
loop_
 _atom_site_type_symbol
 _atom_site_label
 _atom_site_symmetry_multiplicity
 _atom_site_fract_x
 _atom_site_fract_y
 _atom_site_fract_z
 _atom_site_occupancy
  Tm  Tm0  1  0.55539413  0.27544412  0.32031090  1
  Tm  Tm1  1  0.44460587  0.72455588  0.67968910  1
  Tm  Tm2  1  0.53117814  0.79697988  0.30930210  1
  Tm  Tm3  1  0.46882186  0.20302012  0.69069790  1
  O  O4  1  0.39293000  0.98488000  0.43527190  1
  O  O5  1  0.60707000  0.01512000  0.56472810  1
  O  O6  1  0.61963000  0.95378000  0.23173180  1
  O  O7  1  0.38037000  0.04622000  0.76826820  1
  O  O8  1  0.59927000  0.51862000  0.57402000  1
  O  O9  1  0.40073000  0.48138000  0.42598000  1
  O  O10  1  0.71517000  0.30243000  0.38852000  1
  O  O11  1  0.28483000  0.69757000  0.61148000  1
  O  O12  1  0.70033000  0.72028000  0.13883190  1
  O  O13  1  0.29967000  0.27972000  0.86116810  1
  O  O14  1  0.70327000  0.56683000  0.67202000  1
  O  O15  1  0.29673000  0.43317000  0.32798000  1
  O  O18  1  0.27163000  0.22533000  0.63452000  1
  O  O19  1  0.72837000  0.77467000  0.36548000  1
  O  O20  1  0.51443000  0.16502000  0.21202000  1
  O  O21  1  0.48557000  0.83498000  0.78798000  1
  O  O24  1  0.86823000  0.75366000  0.00000000  1
  O  O25  1  0.13177000  0.24634000  0.00303000  1
  C  C26  1  0.13823000  0.24723000  0.51872000  1
  C  C27  1  0.86177000  0.75277000  0.48128000  1
  C  C30  1  0.86547000  0.27763000  0.49212000  1
  C  C31  1  0.13453000  0.72237000  0.50788000  1
  O  O34  1  0.30053000  0.98758000  0.31032000  1
  O  O35  1  0.69947000  0.01242000  0.68968000  1
  O  O36  1  0.63827000  0.24543000  0.55162000  1
  O  O37  1  0.36173000  0.75457000  0.44838000  1
  O  O38  1  0.39133000  0.23563000  0.46372000  1
  O  O39  1  0.60867000  0.76437000  0.53628000  1
  C  C40  1  0.55673000  0.04873000  0.18402000  1
  C  C41  1  0.44327000  0.95127000  0.81598000  1
  C  C42  1  0.14283000  0.15633000  0.45222000  1
  C  C43  1  0.85717000  0.84367000  0.54778000  1
  C  C44  1  0.86027000  0.37193000  0.55432000  1
  C  C45  1  0.13973000  0.62807000  0.44568000  1
  C  C46  1  0.00673000  0.17203000  0.44073000  1
  C  C47  1  0.99327000  0.82797000  0.55927000  1
  H  H48  1  0.01050000  0.11060000  0.39780000  1
  H  H49  1  0.98950000  0.88940000  0.60220000  1
  C  C50  1  0.27783000  0.23423000  0.53892000  1
  C  C51  1  0.72217000  0.76577000  0.46108000  1
  C  C52  1  0.52803000  0.02143000  0.08922000  1
  C  C53  1  0.47197000  0.97857000  0.91078000  1
  C  C54  1  0.42004000  0.12233000  0.05402000  1
  C  C55  1  0.57996000  0.87767000  0.94598000  1
  H  H56  1  0.36540000  0.20390000  0.09130000  1
  H  H57  1  0.63460000  0.79610000  0.90870000  1
  C  C58  1  0.00000000  0.35483000  0.56772000  1
  C  C59  1  0.00313000  0.64517000  0.43228000  1
  H  H60  1  0.99300000  0.41670000  0.61020000  1
  H  H61  1  0.00700000  0.58330000  0.38980000  1
  C  C62  1  0.73444000  0.78337000  0.06023000  1
  C  C63  1  0.26556000  0.21663000  0.93977000  1
  C  C64  1  0.60683000  0.89717000  0.03502000  1
  C  C65  1  0.39317000  0.10283000  0.96498000  1
  C  C66  1  0.72627000  0.27833000  0.47802000  1
  C  C67  1  0.27373000  0.72167000  0.52198000  1
  C  C68  1  0.71267000  0.49193000  0.60343000  1
  C  C69  1  0.28733000  0.50807000  0.39657000  1
  C  C70  1  0.28813000  0.03773000  0.39542000  1
  C  C71  1  0.71187000  0.96227000  0.60458000  1
