# generated using pymatgen
data_Zr3H22C40(NO8)2
_symmetry_space_group_name_H-M   'P 1'
_cell_length_a   35.34620000
_cell_length_b   18.47740000
_cell_length_c   18.09981200
_cell_angle_alpha   90.00000000
_cell_angle_beta   92.95670000
_cell_angle_gamma   90.00000000
_symmetry_Int_Tables_number   1
_chemical_formula_structural   Zr3H22C40(NO8)2
_chemical_formula_sum   'Zr12 H88 C160 N8 O64'
_cell_volume   11805.35734519
_cell_formula_units_Z   4
loop_
 _symmetry_equiv_pos_site_id
 _symmetry_equiv_pos_as_xyz
  1  'x, y, z'
loop_
 _atom_site_type_symbol
 _atom_site_label
 _atom_site_symmetry_multiplicity
 _atom_site_fract_x
 _atom_site_fract_y
 _atom_site_fract_z
 _atom_site_occupancy
  Zr  Zr0  1  0.43103300  0.00000000  0.49933600  1
  Zr  Zr1  1  0.56896700  0.00000000  0.50066400  1
  Zr  Zr2  1  0.93103300  0.50000000  0.49933600  1
  Zr  Zr3  1  0.06896700  0.50000000  0.50066400  1
  Zr  Zr4  1  0.00000000  0.40409700  0.40178400  1
  Zr  Zr5  1  0.00232200  0.40409700  0.59821600  1
  Zr  Zr6  1  0.49767800  0.90409700  0.40178400  1
  Zr  Zr7  1  0.50232200  0.90409700  0.59821600  1
  Zr  Zr8  1  0.00232200  0.59590300  0.59821600  1
  Zr  Zr9  1  0.00000000  0.59590300  0.40178400  1
  Zr  Zr10  1  0.50232200  0.09590300  0.59821600  1
  Zr  Zr11  1  0.49767800  0.09590300  0.40178400  1
  O  O12  1  0.09936160  0.42635000  0.42654000  1
  O  O13  1  0.90063840  0.42635000  0.57346000  1
  O  O14  1  0.59936160  0.92635000  0.42654000  1
  O  O15  1  0.40063840  0.92635000  0.57346000  1
  O  O16  1  0.90063840  0.57365000  0.57346000  1
  O  O17  1  0.09936160  0.57365000  0.42654000  1
  O  O18  1  0.40063840  0.07365000  0.57346000  1
  O  O19  1  0.59936160  0.07365000  0.42654000  1
  O  O20  1  0.39730180  0.07155000  0.42504000  1
  O  O21  1  0.60269820  0.07155000  0.57496000  1
  O  O22  1  0.89730180  0.57155000  0.42504000  1
  O  O23  1  0.10269820  0.57155000  0.57496000  1
  O  O24  1  0.60269820  0.92845000  0.57496000  1
  O  O25  1  0.39730180  0.92845000  0.42504000  1
  O  O26  1  0.10269820  0.42845000  0.57496000  1
  O  O27  1  0.89730180  0.42845000  0.42504000  1
  O  O28  1  0.03288190  0.41453000  0.49353000  1
  O  O29  1  0.96711810  0.41453000  0.50647000  1
  O  O30  1  0.53288190  0.91453000  0.49353000  1
  O  O31  1  0.46711810  0.91453000  0.50647000  1
  O  O32  1  0.96711810  0.58547000  0.50647000  1
  O  O33  1  0.03288190  0.58547000  0.49353000  1
  O  O34  1  0.46711810  0.08547000  0.50647000  1
  O  O35  1  0.53288190  0.08547000  0.49353000  1
  O  O36  1  0.43929190  0.12925000  0.36435000  1
  O  O37  1  0.56070810  0.12925000  0.63565000  1
  O  O38  1  0.93929190  0.62925000  0.36435000  1
  O  O39  1  0.06070810  0.62925000  0.63565000  1
  O  O40  1  0.56070810  0.87075000  0.63565000  1
  O  O41  1  0.43929190  0.87075000  0.36435000  1
  O  O42  1  0.06070810  0.37075000  0.63565000  1
  O  O43  1  0.93929190  0.37075000  0.36435000  1
  O  O60  1  0.02863000  0.50000000  0.40177000  1
  O  O61  1  0.97137000  0.50000000  0.59823000  1
  O  O62  1  0.52863000  0.00000000  0.40177000  1
  O  O63  1  0.47137000  0.00000000  0.59823000  1
  C  C64  1  0.40603000  0.11608000  0.37786000  1
  C  C65  1  0.59397000  0.11608000  0.62214000  1
  C  C66  1  0.90603000  0.61608000  0.37786000  1
  C  C67  1  0.09397000  0.61608000  0.62214000  1
  C  C68  1  0.59397000  0.88392000  0.62214000  1
  C  C69  1  0.40603000  0.88392000  0.37786000  1
  C  C70  1  0.09397000  0.38392000  0.62214000  1
  C  C71  1  0.90603000  0.38392000  0.37786000  1
  C  C72  1  0.11243000  0.31698000  0.26726000  1
  C  C73  1  0.88757000  0.31698000  0.73274000  1
  C  C74  1  0.61243000  0.81698000  0.26726000  1
  C  C75  1  0.38757000  0.81698000  0.73274000  1
  C  C76  1  0.88757000  0.68302000  0.73274000  1
  C  C77  1  0.11243000  0.68302000  0.26726000  1
  C  C78  1  0.38757000  0.18302000  0.73274000  1
  C  C79  1  0.61243000  0.18302000  0.26726000  1
  H  H80  1  0.08765000  0.30798000  0.24936000  1
  H  H81  1  0.91235000  0.30798000  0.75064000  1
  H  H82  1  0.58765000  0.80798000  0.24936000  1
  H  H83  1  0.41235000  0.80798000  0.75064000  1
  H  H84  1  0.91235000  0.69202000  0.75064000  1
  H  H85  1  0.08765000  0.69202000  0.24936000  1
  H  H86  1  0.41235000  0.19202000  0.75064000  1
  H  H87  1  0.58765000  0.19202000  0.24936000  1
  C  C88  1  0.11913000  0.35679000  0.33506000  1
  C  C89  1  0.88087000  0.35679000  0.66494000  1
  C  C90  1  0.61913000  0.85679000  0.33506000  1
  C  C91  1  0.38087000  0.85679000  0.66494000  1
  C  C92  1  0.88087000  0.64321000  0.66494000  1
  C  C93  1  0.11913000  0.64321000  0.33506000  1
  C  C94  1  0.38087000  0.14321000  0.66494000  1
  C  C95  1  0.61913000  0.14321000  0.33506000  1
  C  C96  1  0.08953000  0.38568000  0.37876000  1
  C  C97  1  0.91047000  0.38568000  0.62124000  1
  C  C98  1  0.58953000  0.88568000  0.37876000  1
  C  C99  1  0.41047000  0.88568000  0.62124000  1
  C  C100  1  0.91047000  0.61432000  0.62124000  1
  C  C101  1  0.08953000  0.61432000  0.37876000  1
  C  C102  1  0.41047000  0.11432000  0.62124000  1
  C  C103  1  0.58953000  0.11432000  0.37876000  1
  C  C104  1  0.17853000  0.30041000  0.25176000  1
  C  C105  1  0.82147000  0.30041000  0.74824000  1
  C  C106  1  0.67853000  0.80041000  0.25176000  1
  C  C107  1  0.32147000  0.80041000  0.74824000  1
  C  C108  1  0.82147000  0.69959000  0.74824000  1
  C  C109  1  0.17853000  0.69959000  0.25176000  1
  C  C110  1  0.32147000  0.19959000  0.74824000  1
  C  C111  1  0.67853000  0.19959000  0.25176000  1
  C  C112  1  0.37323000  0.14399000  0.33276000  1
  C  C113  1  0.62677000  0.14399000  0.66724000  1
  C  C114  1  0.87323000  0.64399000  0.33276000  1
  C  C115  1  0.12677000  0.64399000  0.66724000  1
  C  C116  1  0.62677000  0.85601000  0.66724000  1
  C  C117  1  0.37323000  0.85601000  0.33276000  1
  C  C118  1  0.12677000  0.35601000  0.66724000  1
  C  C119  1  0.87323000  0.35601000  0.33276000  1
  C  C120  1  0.34583000  0.21619000  0.22976000  1
  C  C121  1  0.65417000  0.21619000  0.77024000  1
  C  C122  1  0.84583000  0.71619000  0.22976000  1
  C  C123  1  0.15417000  0.71619000  0.77024000  1
  C  C124  1  0.65417000  0.78381000  0.77024000  1
  C  C125  1  0.34583000  0.78381000  0.22976000  1
  C  C126  1  0.15417000  0.28381000  0.77024000  1
  C  C127  1  0.84583000  0.28381000  0.22976000  1
  H  H128  1  0.34937000  0.24546000  0.18889000  1
  H  H129  1  0.65063000  0.24546000  0.81111000  1
  H  H130  1  0.84937000  0.74546000  0.18889000  1
  H  H131  1  0.15063000  0.74546000  0.81111000  1
  H  H132  1  0.65063000  0.75454000  0.81111000  1
  H  H133  1  0.34937000  0.75454000  0.18889000  1
  H  H134  1  0.15063000  0.25454000  0.81111000  1
  H  H135  1  0.84937000  0.25454000  0.18889000  1
  N  N136  1  0.23583000  0.26121000  0.01655000  1
  N  N137  1  0.76417000  0.26121000  0.98345000  1
  N  N138  1  0.73583000  0.76121000  0.01655000  1
  N  N139  1  0.26417000  0.76121000  0.98345000  1
  N  N140  1  0.76417000  0.73879000  0.98345000  1
  N  N141  1  0.23583000  0.73879000  0.01655000  1
  N  N142  1  0.26417000  0.23879000  0.98345000  1
  N  N143  1  0.73583000  0.23879000  0.01655000  1
  C  C144  1  0.37683000  0.18829000  0.26756000  1
  C  C145  1  0.62317000  0.18829000  0.73244000  1
  C  C146  1  0.87683000  0.68829000  0.26756000  1
  C  C147  1  0.12317000  0.68829000  0.73244000  1
  C  C148  1  0.62317000  0.81171000  0.73244000  1
  C  C149  1  0.37683000  0.81171000  0.26756000  1
  C  C150  1  0.12317000  0.31171000  0.73244000  1
  C  C151  1  0.87683000  0.31171000  0.26756000  1
  H  H152  1  0.40080000  0.19775000  0.25104000  1
  H  H153  1  0.59920000  0.19775000  0.74896000  1
  H  H154  1  0.90080000  0.69775000  0.25104000  1
  H  H155  1  0.09920000  0.69775000  0.74896000  1
  H  H156  1  0.59920000  0.80225000  0.74896000  1
  H  H157  1  0.40080000  0.80225000  0.25104000  1
  H  H158  1  0.09920000  0.30225000  0.74896000  1
  H  H159  1  0.90080000  0.30225000  0.25104000  1
  C  C160  1  0.14083000  0.29339000  0.23066000  1
  C  C161  1  0.85917000  0.29339000  0.76934000  1
  C  C162  1  0.64083000  0.79339000  0.23066000  1
  C  C163  1  0.35917000  0.79339000  0.76934000  1
  C  C164  1  0.85917000  0.70661000  0.76934000  1
  C  C165  1  0.14083000  0.70661000  0.23066000  1
  C  C166  1  0.35917000  0.20661000  0.76934000  1
  C  C167  1  0.64083000  0.20661000  0.23066000  1
  H  H168  1  0.13493000  0.26958000  0.18615000  1
  H  H169  1  0.86507000  0.26958000  0.81385000  1
  H  H170  1  0.63493000  0.76958000  0.18615000  1
  H  H171  1  0.36507000  0.76958000  0.81385000  1
  H  H172  1  0.86507000  0.73042000  0.81385000  1
  H  H173  1  0.13493000  0.73042000  0.18615000  1
  H  H174  1  0.36507000  0.23042000  0.81385000  1
  H  H175  1  0.63493000  0.23042000  0.18615000  1
  C  C176  1  0.24393000  0.24941000  0.24636000  1
  C  C177  1  0.75607000  0.24941000  0.75364000  1
  C  C178  1  0.74393000  0.74941000  0.24636000  1
  C  C179  1  0.25607000  0.74941000  0.75364000  1
  C  C180  1  0.75607000  0.75059000  0.75364000  1
  C  C181  1  0.24393000  0.75059000  0.24636000  1
  C  C182  1  0.25607000  0.25059000  0.75364000  1
  C  C183  1  0.74393000  0.25059000  0.24636000  1
  H  H184  1  0.24450000  0.24492000  0.29748000  1
  H  H185  1  0.75550000  0.24492000  0.70252000  1
  H  H186  1  0.74450000  0.74492000  0.29748000  1
  H  H187  1  0.25550000  0.74492000  0.70252000  1
  H  H188  1  0.75550000  0.75508000  0.70252000  1
  H  H189  1  0.24450000  0.75508000  0.29748000  1
  H  H190  1  0.25550000  0.25508000  0.70252000  1
  H  H191  1  0.74450000  0.25508000  0.29748000  1
  C  C192  1  0.27413000  0.23221000  0.13286000  1
  C  C193  1  0.72587000  0.23221000  0.86714000  1
  C  C194  1  0.77413000  0.73221000  0.13286000  1
  C  C195  1  0.22587000  0.73221000  0.86714000  1
  C  C196  1  0.72587000  0.76779000  0.86714000  1
  C  C197  1  0.27413000  0.76779000  0.13286000  1
  C  C198  1  0.22587000  0.26779000  0.86714000  1
  C  C199  1  0.77413000  0.26779000  0.13286000  1
  H  H200  1  0.29536000  0.22080000  0.10681000  1
  H  H201  1  0.70464000  0.22080000  0.89319000  1
  H  H202  1  0.79536000  0.72080000  0.10681000  1
  H  H203  1  0.20464000  0.72080000  0.89319000  1
  H  H204  1  0.70464000  0.77920000  0.89319000  1
  H  H205  1  0.29536000  0.77920000  0.10681000  1
  H  H206  1  0.20464000  0.27920000  0.89319000  1
  H  H207  1  0.79536000  0.27920000  0.10681000  1
  C  C208  1  0.15653000  0.36739000  0.35867000  1
  C  C209  1  0.84347000  0.36739000  0.64133000  1
  C  C210  1  0.65653000  0.86739000  0.35867000  1
  C  C211  1  0.34347000  0.86739000  0.64133000  1
  C  C212  1  0.84347000  0.63261000  0.64133000  1
  C  C213  1  0.15653000  0.63261000  0.35867000  1
  C  C214  1  0.34347000  0.13261000  0.64133000  1
  C  C215  1  0.65653000  0.13261000  0.35867000  1
  H  H216  1  0.16234000  0.39306000  0.40182000  1
  H  H217  1  0.83766000  0.39306000  0.59818000  1
  H  H218  1  0.66234000  0.89306000  0.40182000  1
  H  H219  1  0.33766000  0.89306000  0.59818000  1
  H  H220  1  0.83766000  0.60694000  0.59818000  1
  H  H221  1  0.16234000  0.60694000  0.40182000  1
  H  H222  1  0.33766000  0.10694000  0.59818000  1
  H  H223  1  0.66234000  0.10694000  0.40182000  1
  C  C224  1  0.21193000  0.27851100  0.21176000  1
  C  C225  1  0.78807000  0.27851100  0.78824000  1
  C  C226  1  0.71193000  0.77851100  0.21176000  1
  C  C227  1  0.28807000  0.77851100  0.78824000  1
  C  C228  1  0.78807000  0.72148900  0.78824000  1
  C  C229  1  0.21193000  0.72148900  0.21176000  1
  C  C230  1  0.28807000  0.22148900  0.78824000  1
  C  C231  1  0.71193000  0.22148900  0.21176000  1
  C  C232  1  0.33663000  0.13321000  0.35507000  1
  C  C233  1  0.66337000  0.13321000  0.64493000  1
  C  C234  1  0.83663000  0.63321000  0.35507000  1
  C  C235  1  0.16337000  0.63321000  0.64493000  1
  C  C236  1  0.66337000  0.86679000  0.64493000  1
  C  C237  1  0.33663000  0.86679000  0.35507000  1
  C  C238  1  0.16337000  0.36679000  0.64493000  1
  C  C239  1  0.83663000  0.36679000  0.35507000  1
  H  H240  1  0.33322000  0.10767000  0.39847000  1
  H  H241  1  0.66678000  0.10767000  0.60153000  1
  H  H242  1  0.83322000  0.60767000  0.39847000  1
  H  H243  1  0.16678000  0.60767000  0.60153000  1
  H  H244  1  0.66678000  0.89233000  0.60153000  1
  H  H245  1  0.33322000  0.89233000  0.39847000  1
  H  H246  1  0.16678000  0.39233000  0.60153000  1
  H  H247  1  0.83322000  0.39233000  0.39847000  1
  C  C248  1  0.27433000  0.22681000  0.21116000  1
  C  C249  1  0.72567000  0.22681000  0.78884000  1
  C  C250  1  0.77433000  0.72681000  0.21116000  1
  C  C251  1  0.22567000  0.72681000  0.78884000  1
  C  C252  1  0.72567000  0.77319000  0.78884000  1
  C  C253  1  0.27433000  0.77319000  0.21116000  1
  C  C254  1  0.22567000  0.27319000  0.78884000  1
  C  C255  1  0.77433000  0.27319000  0.21116000  1
  C  C256  1  0.20943000  0.27761000  0.13396000  1
  C  C257  1  0.79057000  0.27761000  0.86604000  1
  C  C258  1  0.70943000  0.77761000  0.13396000  1
  C  C259  1  0.29057000  0.77761000  0.86604000  1
  C  C260  1  0.79057000  0.72239000  0.86604000  1
  C  C261  1  0.20943000  0.72239000  0.13396000  1
  C  C262  1  0.29057000  0.22239000  0.86604000  1
  C  C263  1  0.70943000  0.22239000  0.13396000  1
  H  H264  1  0.18727000  0.29181000  0.10797000  1
  H  H265  1  0.81273000  0.29181000  0.89203000  1
  H  H266  1  0.68727000  0.79181000  0.10797000  1
  H  H267  1  0.31273000  0.79181000  0.89203000  1
  H  H268  1  0.81273000  0.70819000  0.89203000  1
  H  H269  1  0.18727000  0.70819000  0.10797000  1
  H  H270  1  0.31273000  0.20819000  0.89203000  1
  H  H271  1  0.68727000  0.20819000  0.10797000  1
  C  C272  1  0.24053000  0.25531000  0.09695000  1
  C  C273  1  0.75947000  0.25531000  0.90305000  1
  C  C274  1  0.74053000  0.75531000  0.09695000  1
  C  C275  1  0.25947000  0.75531000  0.90305000  1
  C  C276  1  0.75947000  0.74469000  0.90305000  1
  C  C277  1  0.24053000  0.74469000  0.09695000  1
  C  C278  1  0.25947000  0.24469000  0.90305000  1
  C  C279  1  0.74053000  0.24469000  0.09695000  1
  C  C280  1  0.18583000  0.33921000  0.31727000  1
  C  C281  1  0.81417000  0.33921000  0.68273000  1
  C  C282  1  0.68583000  0.83921000  0.31727000  1
  C  C283  1  0.31417000  0.83921000  0.68273000  1
  C  C284  1  0.81417000  0.66079000  0.68273000  1
  C  C285  1  0.18583000  0.66079000  0.31727000  1
  C  C286  1  0.31417000  0.16079000  0.68273000  1
  C  C287  1  0.68583000  0.16079000  0.31727000  1
  H  H288  1  0.21076000  0.34664000  0.33400000  1
  H  H289  1  0.78924000  0.34664000  0.66600000  1
  H  H290  1  0.71076000  0.84664000  0.33400000  1
  H  H291  1  0.28924000  0.84664000  0.66600000  1
  H  H292  1  0.78924000  0.65336000  0.66600000  1
  H  H293  1  0.21076000  0.65336000  0.33400000  1
  H  H294  1  0.28924000  0.15336000  0.66600000  1
  H  H295  1  0.71076000  0.15336000  0.33400000  1
  C  C296  1  0.30933000  0.20221000  0.24986000  1
  C  C297  1  0.69067000  0.20221000  0.75014000  1
  C  C298  1  0.80933000  0.70221000  0.24986000  1
  C  C299  1  0.19067000  0.70221000  0.75014000  1
  C  C300  1  0.69067000  0.79779000  0.75014000  1
  C  C301  1  0.30933000  0.79779000  0.24986000  1
  C  C302  1  0.19067000  0.29779000  0.75014000  1
  C  C303  1  0.80933000  0.29779000  0.24986000  1
  C  C304  1  0.30443000  0.15961000  0.31427000  1
  C  C305  1  0.69557000  0.15961000  0.68573000  1
  C  C306  1  0.80443000  0.65961000  0.31427000  1
  C  C307  1  0.19557000  0.65961000  0.68573000  1
  C  C308  1  0.69557000  0.84039000  0.68573000  1
  C  C309  1  0.30443000  0.84039000  0.31427000  1
  C  C310  1  0.19557000  0.34039000  0.68573000  1
  C  C311  1  0.80443000  0.34039000  0.31427000  1
  H  H312  1  0.28023000  0.14922000  0.32920000  1
  H  H313  1  0.71977000  0.14922000  0.67080000  1
  H  H314  1  0.78023000  0.64922000  0.32920000  1
  H  H315  1  0.21977000  0.64922000  0.67080000  1
  H  H316  1  0.71977000  0.85078000  0.67080000  1
  H  H317  1  0.28023000  0.85078000  0.32920000  1
  H  H318  1  0.21977000  0.35078000  0.67080000  1
  H  H319  1  0.78023000  0.35078000  0.32920000  1
  O  O320  1  0.05378180  0.36925000  0.36314000  1
  O  O321  1  0.94621820  0.36925000  0.63686000  1
  O  O322  1  0.55378180  0.86925000  0.36314000  1
  O  O323  1  0.44621820  0.86925000  0.63686000  1
  O  O324  1  0.94621820  0.63075000  0.63686000  1
  O  O325  1  0.05378180  0.63075000  0.36314000  1
  O  O326  1  0.44621820  0.13075000  0.63686000  1
  O  O327  1  0.55378180  0.13075000  0.36314000  1
  O  O328  1  0.96517000  0.50000000  0.39967000  1
  O  O329  1  0.03483000  0.50000000  0.60033000  1
  O  O330  1  0.46517000  0.00000000  0.39967000  1
  O  O331  1  0.53483000  0.00000000  0.60033000  1
