# generated using pymatgen
data_Dy2H20C12O19
_symmetry_space_group_name_H-M   'P 1'
_cell_length_a   9.42545000
_cell_length_b   14.54618000
_cell_length_c   14.73268000
_cell_angle_alpha   90.00000000
_cell_angle_beta   90.90910000
_cell_angle_gamma   90.00000000
_symmetry_Int_Tables_number   1
_chemical_formula_structural   Dy2H20C12O19
_chemical_formula_sum   'Dy8 H80 C48 O76'
_cell_volume   2019.65940849
_cell_formula_units_Z   4
loop_
 _symmetry_equiv_pos_site_id
 _symmetry_equiv_pos_as_xyz
  1  'x, y, z'
loop_
 _atom_site_type_symbol
 _atom_site_label
 _atom_site_symmetry_multiplicity
 _atom_site_fract_x
 _atom_site_fract_y
 _atom_site_fract_z
 _atom_site_occupancy
  Dy  Dy0  1  0.31229200  0.15348813  0.40595913  1
  Dy  Dy1  1  0.18770800  0.65348813  0.09404087  1
  Dy  Dy2  1  0.68770800  0.84651187  0.59404087  1
  Dy  Dy3  1  0.81229200  0.34651187  0.90595913  1
  O  O4  1  0.09113000  0.23042000  0.45992000  1
  O  O5  1  0.40887000  0.73042000  0.04008000  1
  O  O6  1  0.90887000  0.76958000  0.54008000  1
  O  O7  1  0.59113000  0.26958000  0.95992000  1
  O  O8  1  0.06923000  0.11232000  0.36732000  1
  O  O9  1  0.43077000  0.61232000  0.13268000  1
  O  O10  1  0.93077000  0.88768000  0.63268000  1
  O  O11  1  0.56923000  0.38768000  0.86732000  1
  O  O20  1  0.28363000  0.27772000  0.30352000  1
  O  O21  1  0.21637000  0.77772000  0.19648000  1
  O  O22  1  0.71637000  0.72228000  0.69648000  1
  O  O23  1  0.78363000  0.22228000  0.80352000  1
  O  O24  1  0.55763000  0.10532000  0.43862000  1
  O  O25  1  0.94237000  0.60532000  0.06138000  1
  O  O26  1  0.44237000  0.89468000  0.56138000  1
  O  O27  1  0.05763000  0.39468000  0.93862000  1
  O  O28  1  0.53773000  0.18422000  0.31232000  1
  O  O29  1  0.96227000  0.68422000  0.18768000  1
  O  O30  1  0.46227000  0.81578000  0.68768000  1
  O  O31  1  0.03773000  0.31578000  0.81232000  1
  O  O32  1  0.29403000  0.12702000  0.56702000  1
  O  O33  1  0.20597000  0.62702000  0.93298000  1
  O  O34  1  0.70597000  0.87298000  0.43298000  1
  O  O35  1  0.79403000  0.37298000  0.06702000  1
  O  O36  1  0.40833000  0.28042000  0.47732000  1
  O  O37  1  0.09167000  0.78042000  0.02268000  1
  O  O38  1  0.59167000  0.71958000  0.52268000  1
  O  O39  1  0.90833000  0.21958000  0.97732000  1
  C  C40  1  0.01435000  0.17143000  0.41933000  1
  C  C41  1  0.48565000  0.67143000  0.08067000  1
  C  C42  1  0.98565000  0.82857000  0.58067000  1
  C  C43  1  0.51435000  0.32857000  0.91933000  1
  Dy  Dy60  1  0.52468200  0.33564313  0.24458313  1
  Dy  Dy61  1  0.97531800  0.83564313  0.25541687  1
  Dy  Dy62  1  0.47531800  0.66435687  0.75541687  1
  Dy  Dy63  1  0.02468200  0.16435687  0.74458313  1
  C  C64  1  0.21865000  0.31393000  0.23583000  1
  C  C65  1  0.28135000  0.81393000  0.26417000  1
  C  C66  1  0.78135000  0.68607000  0.76417000  1
  C  C67  1  0.71865000  0.18607000  0.73583000  1
  C  C68  1  0.50995000  0.33493000  0.47183000  1
  C  C69  1  0.99005000  0.83493000  0.02817000  1
  C  C70  1  0.49005000  0.66507000  0.52817000  1
  C  C71  1  0.00995000  0.16507000  0.97183000  1
  C  C72  1  0.85845000  0.17093000  0.43183000  1
  C  C73  1  0.64155000  0.67093000  0.06817000  1
  C  C74  1  0.14155000  0.82907000  0.56817000  1
  C  C75  1  0.35845000  0.32907000  0.93183000  1
  O  O84  1  0.28883000  0.35292000  0.17452000  1
  O  O85  1  0.21117000  0.85292000  0.32548000  1
  O  O86  1  0.71117000  0.64708000  0.82548000  1
  O  O87  1  0.78883000  0.14708000  0.67452000  1
  O  O88  1  0.41923000  0.47422000  0.30392000  1
  O  O89  1  0.08077000  0.97422000  0.19608000  1
  O  O90  1  0.58077000  0.52578000  0.69608000  1
  O  O91  1  0.91923000  0.02578000  0.80392000  1
  O  O92  1  0.64843000  0.48382000  0.28072000  1
  O  O93  1  0.85157000  0.98382000  0.21928000  1
  O  O94  1  0.35157000  0.51618000  0.71928000  1
  O  O95  1  0.14843000  0.01618000  0.78072000  1
  O  O96  1  0.76073000  0.31702000  0.20632000  1
  O  O97  1  0.73927000  0.81702000  0.29368000  1
  O  O98  1  0.23927000  0.68298000  0.79368000  1
  O  O99  1  0.26073000  0.18298000  0.70632000  1
  O  O100  1  0.58813000  0.34502000  0.40302000  1
  O  O101  1  0.91187000  0.84502000  0.09698000  1
  O  O102  1  0.41187000  0.65498000  0.59698000  1
  O  O103  1  0.08813000  0.15498000  0.90302000  1
  C  C104  1  0.06135000  0.31353000  0.23083000  1
  C  C105  1  0.43865000  0.81353000  0.26917000  1
  C  C106  1  0.93865000  0.68647000  0.76917000  1
  C  C107  1  0.56135000  0.18647000  0.73083000  1
  C  C108  1  0.54135000  0.39743000  0.55043000  1
  C  C109  1  0.95865000  0.89743000  0.94957000  1
  C  C110  1  0.45865000  0.60257000  0.44957000  1
  C  C111  1  0.04135000  0.10257000  0.05043000  1
  H  H112  1  0.82180000  0.18780000  0.48760000  1
  H  H113  1  0.67820000  0.68780000  0.01240000  1
  H  H114  1  0.17820000  0.81220000  0.51240000  1
  H  H115  1  0.32180000  0.31220000  0.98760000  1
  C  C116  1  0.77105000  0.14673000  0.36513000  1
  C  C117  1  0.72895000  0.64673000  0.13487000  1
  C  C118  1  0.22895000  0.85327000  0.63487000  1
  C  C119  1  0.27105000  0.35327000  0.86513000  1
  H  H136  1  0.00920000  0.30150000  0.28260000  1
  H  H137  1  0.49080000  0.80150000  0.21740000  1
  H  H138  1  0.99080000  0.69850000  0.71740000  1
  H  H139  1  0.50920000  0.19850000  0.78260000  1
  C  C140  1  0.99495000  0.33033000  0.15253000  1
  C  C141  1  0.50505000  0.83033000  0.34747000  1
  C  C142  1  0.00505000  0.66967000  0.84747000  1
  C  C143  1  0.49495000  0.16967000  0.65253000  1
  H  H144  1  0.62820000  0.42760000  0.55360000  1
  H  H145  1  0.87180000  0.92760000  0.94640000  1
  H  H146  1  0.37180000  0.57240000  0.44640000  1
  H  H147  1  0.12820000  0.07240000  0.05360000  1
  C  C148  1  0.44765000  0.41063000  0.61553000  1
  C  C149  1  0.05235000  0.91063000  0.88447000  1
  C  C150  1  0.55235000  0.58937000  0.38447000  1
  C  C151  1  0.94765000  0.08937000  0.11553000  1
  H  H152  1  0.81010000  0.12950000  0.31010000  1
  H  H153  1  0.68990000  0.62950000  0.18990000  1
  H  H154  1  0.18990000  0.87050000  0.68990000  1
  H  H155  1  0.31010000  0.37050000  0.81010000  1
  C  C156  1  0.61485000  0.14543000  0.37273000  1
  C  C157  1  0.88515000  0.64543000  0.12727000  1
  C  C158  1  0.38515000  0.85457000  0.62727000  1
  C  C159  1  0.11485000  0.35457000  0.87273000  1
  H  H160  1  0.05010000  0.33680000  0.10110000  1
  H  H161  1  0.44990000  0.83680000  0.39890000  1
  H  H162  1  0.94990000  0.66320000  0.89890000  1
  H  H163  1  0.55010000  0.16320000  0.60110000  1
  C  C164  1  0.83895000  0.33943000  0.14143000  1
  C  C165  1  0.66105000  0.83943000  0.35857000  1
  C  C166  1  0.16105000  0.66057000  0.85857000  1
  C  C167  1  0.33895000  0.16057000  0.64143000  1
  C  C168  1  0.46165000  0.48623000  0.68193000  1
  C  C169  1  0.03835000  0.98623000  0.81807000  1
  C  C170  1  0.53835000  0.51377000  0.31807000  1
  C  C171  1  0.96165000  0.01377000  0.18193000  1
  H  H172  1  0.37060000  0.37090000  0.61940000  1
  H  H173  1  0.12940000  0.87090000  0.88060000  1
  H  H174  1  0.62940000  0.62910000  0.38060000  1
  H  H175  1  0.87060000  0.12910000  0.11940000  1
