# generated using pymatgen
data_NdH33C30(NO3)3
_symmetry_space_group_name_H-M   'P 1'
_cell_length_a   27.77997000
_cell_length_b   8.66311000
_cell_length_c   14.24223000
_cell_angle_alpha   90.00000000
_cell_angle_beta   114.70230000
_cell_angle_gamma   90.00000000
_symmetry_Int_Tables_number   1
_chemical_formula_structural   NdH33C30(NO3)3
_chemical_formula_sum   'Nd4 H132 C120 N12 O36'
_cell_volume   3113.89825426
_cell_formula_units_Z   4
loop_
 _symmetry_equiv_pos_site_id
 _symmetry_equiv_pos_as_xyz
  1  'x, y, z'
loop_
 _atom_site_type_symbol
 _atom_site_label
 _atom_site_symmetry_multiplicity
 _atom_site_fract_x
 _atom_site_fract_y
 _atom_site_fract_z
 _atom_site_occupancy
  Nd  Nd0  1  0.22642070  0.34191400  0.99498388  1
  Nd  Nd1  1  0.77357930  0.34191400  0.00501612  1
  Nd  Nd2  1  0.72642070  0.84191400  0.99498388  1
  Nd  Nd3  1  0.27357930  0.84191400  0.00501612  1
  C  C4  1  0.28606190  0.16365000  0.86146000  1
  C  C5  1  0.71393810  0.16365000  0.13854000  1
  C  C6  1  0.78606190  0.66365000  0.86146000  1
  C  C7  1  0.21393810  0.66365000  0.13854000  1
  O  O8  1  0.27525150  0.28914000  0.89187000  1
  O  O9  1  0.72474850  0.28914000  0.10813000  1
  O  O10  1  0.77525150  0.78914000  0.89187000  1
  O  O11  1  0.22474850  0.78914000  0.10813000  1
  O  O12  1  0.29105150  0.03664000  0.90677000  1
  O  O13  1  0.70894850  0.03664000  0.09323000  1
  O  O14  1  0.79105150  0.53664000  0.90677000  1
  O  O15  1  0.20894850  0.53664000  0.09323000  1
  C  C16  1  0.29318190  0.16305000  0.76257000  1
  C  C17  1  0.70681810  0.16305000  0.23743000  1
  C  C18  1  0.79318190  0.66305000  0.76257000  1
  C  C19  1  0.20681810  0.66305000  0.23743000  1
  C  C20  1  0.27302000  0.28346000  0.69176000  1
  C  C21  1  0.72698000  0.28346000  0.30824000  1
  C  C22  1  0.77302000  0.78346000  0.69176000  1
  C  C23  1  0.22698000  0.78346000  0.30824000  1
  H  H24  1  0.25650000  0.36680000  0.70720000  1
  H  H25  1  0.74350000  0.36680000  0.29280000  1
  H  H26  1  0.75650000  0.86680000  0.70720000  1
  H  H27  1  0.24350000  0.86680000  0.29280000  1
  C  C28  1  0.27772000  0.27886000  0.59816000  1
  C  C29  1  0.72228000  0.27886000  0.40184000  1
  C  C30  1  0.77772000  0.77886000  0.59816000  1
  C  C31  1  0.22228000  0.77886000  0.40184000  1
  H  H32  1  0.26340000  0.35850000  0.55090000  1
  H  H33  1  0.73660000  0.35850000  0.44910000  1
  H  H34  1  0.76340000  0.85850000  0.55090000  1
  H  H35  1  0.23660000  0.85850000  0.44910000  1
  C  C36  1  0.30337190  0.15655000  0.57417000  1
  C  C37  1  0.69662810  0.15655000  0.42583000  1
  C  C38  1  0.80337190  0.65655000  0.57417000  1
  C  C39  1  0.19662810  0.65655000  0.42583000  1
  C  C40  1  0.32490190  0.04065000  0.64777000  1
  C  C41  1  0.67509810  0.04065000  0.35223000  1
  C  C42  1  0.82490190  0.54065000  0.64777000  1
  C  C43  1  0.17509810  0.54065000  0.35223000  1
  H  H44  1  0.34330000  0.96020000  0.63450000  1
  H  H45  1  0.65670000  0.96020000  0.36550000  1
  H  H46  1  0.84330000  0.46020000  0.63450000  1
  H  H47  1  0.15670000  0.46020000  0.36550000  1
  C  C48  1  0.31958190  0.04195000  0.74067000  1
  C  C49  1  0.68041810  0.04195000  0.25933000  1
  C  C50  1  0.81958190  0.54195000  0.74067000  1
  C  C51  1  0.18041810  0.54195000  0.25933000  1
  H  H52  1  0.33360000  0.96190000  0.78790000  1
  H  H53  1  0.66640000  0.96190000  0.21210000  1
  H  H54  1  0.83360000  0.46190000  0.78790000  1
  H  H55  1  0.16640000  0.46190000  0.21210000  1
  C  C56  1  0.30662000  0.14685000  0.47256000  1
  C  C57  1  0.69338000  0.14685000  0.52744000  1
  C  C58  1  0.80662000  0.64685000  0.47256000  1
  C  C59  1  0.19338000  0.64685000  0.52744000  1
  C  C60  1  0.26632000  0.21076000  0.38406000  1
  C  C61  1  0.73368000  0.21076000  0.61594000  1
  C  C62  1  0.76632000  0.71076000  0.38406000  1
  C  C63  1  0.23368000  0.71076000  0.61594000  1
  H  H64  1  0.23930000  0.26700000  0.39040000  1
  H  H65  1  0.76070000  0.26700000  0.60960000  1
  H  H66  1  0.73930000  0.76700000  0.39040000  1
  H  H67  1  0.26070000  0.76700000  0.60960000  1
  C  C68  1  0.26622000  0.19115000  0.28756000  1
  C  C69  1  0.73378000  0.19115000  0.71244000  1
  C  C70  1  0.76622000  0.69115000  0.28756000  1
  C  C71  1  0.23378000  0.69115000  0.71244000  1
  H  H72  1  0.23920000  0.23450000  0.22980000  1
  H  H73  1  0.76080000  0.23450000  0.77020000  1
  H  H74  1  0.73920000  0.73450000  0.22980000  1
  H  H75  1  0.26080000  0.73450000  0.77020000  1
  C  C76  1  0.30592190  0.10755000  0.27637000  1
  C  C77  1  0.69407810  0.10755000  0.72363000  1
  C  C78  1  0.80592190  0.60755000  0.27637000  1
  C  C79  1  0.19407810  0.60755000  0.72363000  1
  C  C80  1  0.34751190  0.05045000  0.36447000  1
  C  C81  1  0.65248810  0.05045000  0.63553000  1
  C  C82  1  0.84751190  0.55045000  0.36447000  1
  C  C83  1  0.15248810  0.55045000  0.63553000  1
  H  H84  1  0.37520000  0.00000000  0.35800000  1
  H  H85  1  0.62480000  0.00000000  0.64200000  1
  H  H86  1  0.87520000  0.49810000  0.35800000  1
  H  H87  1  0.12480000  0.49810000  0.64200000  1
  C  C88  1  0.34822000  0.07026000  0.46206000  1
  C  C89  1  0.65178000  0.07026000  0.53794000  1
  C  C90  1  0.84822000  0.57026000  0.46206000  1
  C  C91  1  0.15178000  0.57026000  0.53794000  1
  H  H92  1  0.37650000  0.03240000  0.52020000  1
  H  H93  1  0.62350000  0.03240000  0.47980000  1
  H  H94  1  0.87650000  0.53240000  0.52020000  1
  H  H95  1  0.12350000  0.53240000  0.47980000  1
  C  C96  1  0.30212180  0.06315000  0.17177000  1
  C  C97  1  0.69787820  0.06315000  0.82823000  1
  C  C98  1  0.80212180  0.56315000  0.17177000  1
  C  C99  1  0.19787820  0.56315000  0.82823000  1
  O  O100  1  0.26046130  0.10234000  0.09088000  1
  O  O101  1  0.73953870  0.10234000  0.90912000  1
  O  O102  1  0.76046130  0.60234000  0.09088000  1
  O  O103  1  0.23953870  0.60234000  0.90912000  1
  O  O104  1  0.33645140  0.97736000  0.16467000  1
  O  O105  1  0.66354860  0.97736000  0.83533000  1
  O  O106  1  0.83645140  0.47736000  0.16467000  1
  O  O107  1  0.16354860  0.47736000  0.83533000  1
  C  C108  1  0.33735190  0.51575000  0.16124000  1
  C  C109  1  0.66264810  0.51575000  0.83876000  1
  C  C110  1  0.83735190  0.01575000  0.16124000  1
  C  C111  1  0.16264810  0.01575000  0.83876000  1
  O  O112  1  0.31532130  0.38953000  0.12212000  1
  O  O113  1  0.68467870  0.38953000  0.87788000  1
  O  O114  1  0.81532130  0.88953000  0.12212000  1
  O  O115  1  0.18467870  0.88953000  0.87788000  1
  O  O116  1  0.32107150  0.64584000  0.12243000  1
  O  O117  1  0.67892850  0.64584000  0.87757000  1
  O  O118  1  0.82107150  0.14584000  0.12243000  1
  O  O119  1  0.17892850  0.14584000  0.87757000  1
  C  C120  1  0.38552000  0.51196000  0.26154000  1
  C  C121  1  0.61448000  0.51196000  0.73846000  1
  C  C122  1  0.88552000  0.01196000  0.26154000  1
  C  C123  1  0.11448000  0.01196000  0.73846000  1
  C  C124  1  0.40483000  0.64777000  0.31405000  1
  C  C125  1  0.59517000  0.64777000  0.68595000  1
  C  C126  1  0.90483000  0.14777000  0.31405000  1
  C  C127  1  0.09517000  0.14777000  0.68595000  1
  H  H128  1  0.38780000  0.74040000  0.28710000  1
  H  H129  1  0.61220000  0.74040000  0.71290000  1
  H  H130  1  0.88780000  0.24040000  0.28710000  1
  H  H131  1  0.11220000  0.24040000  0.71290000  1
  C  C132  1  0.44983000  0.64637000  0.40775000  1
  C  C133  1  0.55017000  0.64637000  0.59225000  1
  C  C134  1  0.94983000  0.14637000  0.40775000  1
  C  C135  1  0.05017000  0.14637000  0.59225000  1
  H  H136  1  0.46210000  0.73870000  0.44280000  1
  H  H137  1  0.53790000  0.73870000  0.55720000  1
  H  H138  1  0.96210000  0.23870000  0.44280000  1
  H  H139  1  0.03790000  0.23870000  0.55720000  1
  C  C140  1  0.47672000  0.51047000  0.44955000  1
  C  C141  1  0.52328000  0.51047000  0.55045000  1
  C  C142  1  0.97672000  0.01047000  0.44955000  1
  C  C143  1  0.02328000  0.01047000  0.55045000  1
  C  C144  1  0.45532000  0.37506000  0.39705000  1
  C  C145  1  0.54468000  0.37506000  0.60295000  1
  C  C146  1  0.95532000  0.87506000  0.39705000  1
  C  C147  1  0.04468000  0.87506000  0.60295000  1
  H  H148  1  0.47130000  0.28140000  0.42470000  1
  H  H149  1  0.52870000  0.28140000  0.57530000  1
  H  H150  1  0.97130000  0.78140000  0.42470000  1
  H  H151  1  0.02870000  0.78140000  0.57530000  1
  C  C152  1  0.41042000  0.37596000  0.30344000  1
  C  C153  1  0.58958000  0.37596000  0.69656000  1
  C  C154  1  0.91042000  0.87596000  0.30344000  1
  C  C155  1  0.08958000  0.87596000  0.69656000  1
  H  H156  1  0.39730000  0.28340000  0.26910000  1
  H  H157  1  0.60270000  0.28340000  0.73090000  1
  H  H158  1  0.89730000  0.78340000  0.26910000  1
  H  H159  1  0.10270000  0.78340000  0.73090000  1
