# generated using pymatgen
data_Zr3H36C53O16
_symmetry_space_group_name_H-M   'P 1'
_cell_length_a   20.42327160
_cell_length_b   20.42327160
_cell_length_c   41.46234000
_cell_angle_alpha   90.00000000
_cell_angle_beta   90.00000000
_cell_angle_gamma   90.00000000
_symmetry_Int_Tables_number   1
_chemical_formula_structural   Zr3H36C53O16
_chemical_formula_sum   'Zr12 H144 C212 O64'
_cell_volume   17294.35758471
_cell_formula_units_Z   4
loop_
 _symmetry_equiv_pos_site_id
 _symmetry_equiv_pos_as_xyz
  1  'x, y, z'
loop_
 _atom_site_type_symbol
 _atom_site_label
 _atom_site_symmetry_multiplicity
 _atom_site_fract_x
 _atom_site_fract_y
 _atom_site_fract_z
 _atom_site_occupancy
  Zr  Zr0  1  0.50000000  0.50000000  0.05910200  1
  Zr  Zr1  1  0.00000000  0.00000000  0.55910200  1
  Zr  Zr2  1  0.50000000  0.50000000  0.94089800  1
  Zr  Zr3  1  0.00000000  0.00000000  0.44089800  1
  Zr  Zr4  1  0.51430200  0.37832200  0.00000000  1
  Zr  Zr5  1  0.62167800  0.51430200  0.00000000  1
  Zr  Zr6  1  0.48569800  0.62167800  0.00000000  1
  Zr  Zr7  1  0.37832200  0.48569800  0.00000000  1
  Zr  Zr8  1  0.01430200  0.87832200  0.50000000  1
  Zr  Zr9  1  0.12167800  0.01430200  0.50000000  1
  Zr  Zr10  1  0.98569800  0.12167800  0.50000000  1
  Zr  Zr11  1  0.87832200  0.98569800  0.50000000  1
  O  O12  1  0.50883140  0.40898120  0.08624500  1
  O  O13  1  0.59101880  0.50883140  0.08624500  1
  O  O14  1  0.49116860  0.59101880  0.08624500  1
  O  O15  1  0.40898120  0.49116860  0.08624500  1
  O  O16  1  0.00883140  0.90898120  0.58624500  1
  O  O17  1  0.09101880  0.00883140  0.58624500  1
  O  O18  1  0.99116860  0.09101880  0.58624500  1
  O  O19  1  0.90898120  0.99116860  0.58624500  1
  O  O20  1  0.49116860  0.59101880  0.91375500  1
  O  O21  1  0.40898120  0.49116860  0.91375500  1
  O  O22  1  0.50883140  0.40898120  0.91375500  1
  O  O23  1  0.59101880  0.50883140  0.91375500  1
  O  O24  1  0.99116860  0.09101880  0.41375500  1
  O  O25  1  0.90898120  0.99116860  0.41375500  1
  O  O26  1  0.00883140  0.90898120  0.41375500  1
  O  O27  1  0.09101880  0.00883140  0.41375500  1
  O  O28  1  0.51942000  0.32919130  0.04906600  1
  O  O29  1  0.67080870  0.51942000  0.04906600  1
  O  O30  1  0.48058000  0.67080870  0.04906600  1
  O  O31  1  0.32919130  0.48058000  0.04906600  1
  O  O32  1  0.01942000  0.82919130  0.54906600  1
  O  O33  1  0.17080870  0.01942000  0.54906600  1
  O  O34  1  0.98058000  0.17080870  0.54906600  1
  O  O35  1  0.82919130  0.98058000  0.54906600  1
  O  O36  1  0.48058000  0.67080870  0.95093400  1
  O  O37  1  0.32919130  0.48058000  0.95093400  1
  O  O38  1  0.51942000  0.32919130  0.95093400  1
  O  O39  1  0.67080870  0.51942000  0.95093400  1
  O  O40  1  0.98058000  0.17080870  0.45093400  1
  O  O41  1  0.82919130  0.98058000  0.45093400  1
  O  O42  1  0.01942000  0.82919130  0.45093400  1
  O  O43  1  0.17080870  0.01942000  0.45093400  1
  O  O76  1  0.56907170  0.44614170  0.97089400  1
  O  O77  1  0.55385830  0.56907170  0.97089400  1
  O  O78  1  0.43092830  0.55385830  0.97089400  1
  O  O79  1  0.44614170  0.43092830  0.97089400  1
  O  O80  1  0.06907170  0.94614170  0.47089400  1
  O  O81  1  0.05385830  0.06907170  0.47089400  1
  O  O82  1  0.93092830  0.05385830  0.47089400  1
  O  O83  1  0.94614170  0.93092830  0.47089400  1
  O  O84  1  0.43092830  0.55385830  0.02910600  1
  O  O85  1  0.44614170  0.43092830  0.02910600  1
  O  O86  1  0.56907170  0.44614170  0.02910600  1
  O  O87  1  0.55385830  0.56907170  0.02910600  1
  O  O88  1  0.93092830  0.05385830  0.52910600  1
  O  O89  1  0.94614170  0.93092830  0.52910600  1
  O  O90  1  0.06907170  0.94614170  0.52910600  1
  O  O91  1  0.05385830  0.06907170  0.52910600  1
  C  C92  1  0.51482000  0.34972000  0.07786700  1
  C  C93  1  0.65028000  0.51482000  0.07786700  1
  C  C94  1  0.48518000  0.65028000  0.07786700  1
  C  C95  1  0.34972000  0.48518000  0.07786700  1
  C  C96  1  0.01482000  0.84972000  0.57786700  1
  C  C97  1  0.15028000  0.01482000  0.57786700  1
  C  C98  1  0.98518000  0.15028000  0.57786700  1
  C  C99  1  0.84972000  0.98518000  0.57786700  1
  C  C100  1  0.48518000  0.65028000  0.92213300  1
  C  C101  1  0.34972000  0.48518000  0.92213300  1
  C  C102  1  0.51482000  0.34972000  0.92213300  1
  C  C103  1  0.65028000  0.51482000  0.92213300  1
  C  C104  1  0.98518000  0.15028000  0.42213300  1
  C  C105  1  0.84972000  0.98518000  0.42213300  1
  C  C106  1  0.01482000  0.84972000  0.42213300  1
  C  C107  1  0.15028000  0.01482000  0.42213300  1
  C  C108  1  0.53175180  0.18874100  0.12234500  1
  C  C109  1  0.81125900  0.53175180  0.12234500  1
  C  C110  1  0.46824820  0.81125900  0.12234500  1
  C  C111  1  0.18874100  0.46824820  0.12234500  1
  C  C112  1  0.03175180  0.68874100  0.62234500  1
  C  C113  1  0.31125900  0.03175180  0.62234500  1
  C  C114  1  0.96824820  0.31125900  0.62234500  1
  C  C115  1  0.68874100  0.96824820  0.62234500  1
  C  C116  1  0.46824820  0.81125900  0.87765500  1
  C  C117  1  0.18874100  0.46824820  0.87765500  1
  C  C118  1  0.53175180  0.18874100  0.87765500  1
  C  C119  1  0.81125900  0.53175180  0.87765500  1
  C  C120  1  0.96824820  0.31125900  0.37765500  1
  C  C121  1  0.68874100  0.96824820  0.37765500  1
  C  C122  1  0.03175180  0.68874100  0.37765500  1
  C  C123  1  0.31125900  0.03175180  0.37765500  1
  H  H124  1  0.54234000  0.14435000  0.11792000  1
  H  H125  1  0.85565000  0.54234000  0.11792000  1
  H  H126  1  0.45766000  0.85565000  0.11792000  1
  H  H127  1  0.14435000  0.45766000  0.11792000  1
  H  H128  1  0.04234000  0.64435000  0.61792000  1
  H  H129  1  0.35565000  0.04234000  0.61792000  1
  H  H130  1  0.95766000  0.35565000  0.61792000  1
  H  H131  1  0.64435000  0.95766000  0.61792000  1
  H  H132  1  0.45766000  0.85565000  0.88208000  1
  H  H133  1  0.14435000  0.45766000  0.88208000  1
  H  H134  1  0.54234000  0.14435000  0.88208000  1
  H  H135  1  0.85565000  0.54234000  0.88208000  1
  H  H136  1  0.95766000  0.35565000  0.38208000  1
  H  H137  1  0.64435000  0.95766000  0.38208000  1
  H  H138  1  0.04234000  0.64435000  0.38208000  1
  H  H139  1  0.35565000  0.04234000  0.38208000  1
  C  C140  1  0.51577180  0.20777110  0.15355400  1
  C  C141  1  0.79222890  0.51577180  0.15355400  1
  C  C142  1  0.48422820  0.79222890  0.15355400  1
  C  C143  1  0.20777110  0.48422820  0.15355400  1
  C  C144  1  0.01577180  0.70777110  0.65355400  1
  C  C145  1  0.29222890  0.01577180  0.65355400  1
  C  C146  1  0.98422820  0.29222890  0.65355400  1
  C  C147  1  0.70777110  0.98422820  0.65355400  1
  C  C148  1  0.48422820  0.79222890  0.84644600  1
  C  C149  1  0.20777110  0.48422820  0.84644600  1
  C  C150  1  0.51577180  0.20777110  0.84644600  1
  C  C151  1  0.79222890  0.51577180  0.84644600  1
  C  C152  1  0.98422820  0.29222890  0.34644600  1
  C  C153  1  0.70777110  0.98422820  0.34644600  1
  C  C154  1  0.01577180  0.70777110  0.34644600  1
  C  C155  1  0.29222890  0.01577180  0.34644600  1
  C  C156  1  0.50032000  0.27273120  0.16002400  1
  C  C157  1  0.72726880  0.50032000  0.16002400  1
  C  C158  1  0.49968000  0.72726880  0.16002400  1
  C  C159  1  0.27273120  0.49968000  0.16002400  1
  C  C160  1  0.00032000  0.77273120  0.66002400  1
  C  C161  1  0.22726880  0.00032000  0.66002400  1
  C  C162  1  0.00000000  0.22726880  0.66002400  1
  C  C163  1  0.77273120  0.00000000  0.66002400  1
  C  C164  1  0.49968000  0.72726880  0.83997600  1
  C  C165  1  0.27273120  0.49968000  0.83997600  1
  C  C166  1  0.50032000  0.27273120  0.83997600  1
  C  C167  1  0.72726880  0.50032000  0.83997600  1
  C  C168  1  0.00000000  0.22726880  0.33997600  1
  C  C169  1  0.77273120  0.00000000  0.33997600  1
  C  C170  1  0.00032000  0.77273120  0.33997600  1
  C  C171  1  0.22726880  0.00032000  0.33997600  1
  H  H172  1  0.48935000  0.28574000  0.18135000  1
  H  H173  1  0.71426000  0.48935000  0.18135000  1
  H  H174  1  0.51065000  0.71426000  0.18135000  1
  H  H175  1  0.28574000  0.51065000  0.18135000  1
  H  H176  1  0.98935000  0.78574000  0.68135000  1
  H  H177  1  0.21426000  0.98935000  0.68135000  1
  H  H178  1  0.01065000  0.21426000  0.68135000  1
  H  H179  1  0.78574000  0.01065000  0.68135000  1
  H  H180  1  0.51065000  0.71426000  0.81865000  1
  H  H181  1  0.28574000  0.51065000  0.81865000  1
  H  H182  1  0.48935000  0.28574000  0.81865000  1
  H  H183  1  0.71426000  0.48935000  0.81865000  1
  H  H184  1  0.01065000  0.21426000  0.31865000  1
  H  H185  1  0.78574000  0.01065000  0.31865000  1
  H  H186  1  0.98935000  0.78574000  0.31865000  1
  H  H187  1  0.21426000  0.98935000  0.31865000  1
  C  C188  1  0.50082000  0.31866100  0.13528500  1
  C  C189  1  0.68133900  0.50082000  0.13528500  1
  C  C190  1  0.49918000  0.68133900  0.13528500  1
  C  C191  1  0.31866100  0.49918000  0.13528500  1
  C  C192  1  0.00082000  0.81866100  0.63528500  1
  C  C193  1  0.18133900  0.00082000  0.63528500  1
  C  C194  1  0.00000000  0.18133900  0.63528500  1
  C  C195  1  0.81866100  0.00000000  0.63528500  1
  C  C196  1  0.49918000  0.68133900  0.86471500  1
  C  C197  1  0.31866100  0.49918000  0.86471500  1
  C  C198  1  0.50082000  0.31866100  0.86471500  1
  C  C199  1  0.68133900  0.50082000  0.86471500  1
  C  C200  1  0.00000000  0.18133900  0.36471500  1
  C  C201  1  0.81866100  0.00000000  0.36471500  1
  C  C202  1  0.00082000  0.81866100  0.36471500  1
  C  C203  1  0.18133900  0.00082000  0.36471500  1
  H  H204  1  0.49019000  0.36306000  0.13970000  1
  H  H205  1  0.63694000  0.49019000  0.13970000  1
  H  H206  1  0.50981000  0.63694000  0.13970000  1
  H  H207  1  0.36306000  0.50981000  0.13970000  1
  H  H208  1  0.99019000  0.86306000  0.63970000  1
  H  H209  1  0.13694000  0.99019000  0.63970000  1
  H  H210  1  0.00981000  0.13694000  0.63970000  1
  H  H211  1  0.86306000  0.00981000  0.63970000  1
  H  H212  1  0.50981000  0.63694000  0.86030000  1
  H  H213  1  0.36306000  0.50981000  0.86030000  1
  H  H214  1  0.49019000  0.36306000  0.86030000  1
  H  H215  1  0.63694000  0.49019000  0.86030000  1
  H  H216  1  0.00981000  0.13694000  0.36030000  1
  H  H217  1  0.86306000  0.00981000  0.36030000  1
  H  H218  1  0.99019000  0.86306000  0.36030000  1
  H  H219  1  0.13694000  0.99019000  0.36030000  1
  C  C220  1  0.51676180  0.29963100  0.10407400  1
  C  C221  1  0.70036900  0.51676180  0.10407400  1
  C  C222  1  0.48323820  0.70036900  0.10407400  1
  C  C223  1  0.29963100  0.48323820  0.10407400  1
  C  C224  1  0.01676180  0.79963100  0.60407400  1
  C  C225  1  0.20036900  0.01676180  0.60407400  1
  C  C226  1  0.98323820  0.20036900  0.60407400  1
  C  C227  1  0.79963100  0.98323820  0.60407400  1
  C  C228  1  0.48323820  0.70036900  0.89592600  1
  C  C229  1  0.29963100  0.48323820  0.89592600  1
  C  C230  1  0.51676180  0.29963100  0.89592600  1
  C  C231  1  0.70036900  0.51676180  0.89592600  1
  C  C232  1  0.98323820  0.20036900  0.39592600  1
  C  C233  1  0.79963100  0.98323820  0.39592600  1
  C  C234  1  0.01676180  0.79963100  0.39592600  1
  C  C235  1  0.20036900  0.01676180  0.39592600  1
  C  C236  1  0.53225170  0.23467120  0.09760400  1
  C  C237  1  0.76532880  0.53225170  0.09760400  1
  C  C238  1  0.46774830  0.76532880  0.09760400  1
  C  C239  1  0.23467120  0.46774830  0.09760400  1
  C  C240  1  0.03225170  0.73467120  0.59760400  1
  C  C241  1  0.26532880  0.03225170  0.59760400  1
  C  C242  1  0.96774830  0.26532880  0.59760400  1
  C  C243  1  0.73467120  0.96774830  0.59760400  1
  C  C244  1  0.46774830  0.76532880  0.90239600  1
  C  C245  1  0.23467120  0.46774830  0.90239600  1
  C  C246  1  0.53225170  0.23467120  0.90239600  1
  C  C247  1  0.76532880  0.53225170  0.90239600  1
  C  C248  1  0.96774830  0.26532880  0.40239600  1
  C  C249  1  0.73467120  0.96774830  0.40239600  1
  C  C250  1  0.03225170  0.73467120  0.40239600  1
  C  C251  1  0.26532880  0.03225170  0.40239600  1
  H  H252  1  0.54318000  0.22167000  0.07627000  1
  H  H253  1  0.77833000  0.54318000  0.07627000  1
  H  H254  1  0.45682000  0.77833000  0.07627000  1
  H  H255  1  0.22167000  0.45682000  0.07627000  1
  H  H256  1  0.04318000  0.72167000  0.57627000  1
  H  H257  1  0.27833000  0.04318000  0.57627000  1
  H  H258  1  0.95682000  0.27833000  0.57627000  1
  H  H259  1  0.72167000  0.95682000  0.57627000  1
  H  H260  1  0.45682000  0.77833000  0.92373000  1
  H  H261  1  0.22167000  0.45682000  0.92373000  1
  H  H262  1  0.54318000  0.22167000  0.92373000  1
  H  H263  1  0.77833000  0.54318000  0.92373000  1
  H  H264  1  0.95682000  0.27833000  0.42373000  1
  H  H265  1  0.72167000  0.95682000  0.42373000  1
  H  H266  1  0.04318000  0.72167000  0.42373000  1
  H  H267  1  0.27833000  0.04318000  0.42373000  1
  C  C268  1  0.55918120  0.10675120  0.18047500  1
  C  C269  1  0.89324880  0.55918120  0.18047500  1
  C  C270  1  0.44081880  0.89324880  0.18047500  1
  C  C271  1  0.10675120  0.44081880  0.18047500  1
  C  C272  1  0.05918120  0.60675120  0.68047500  1
  C  C273  1  0.39324880  0.05918120  0.68047500  1
  C  C274  1  0.94081880  0.39324880  0.68047500  1
  C  C275  1  0.60675120  0.94081880  0.68047500  1
  C  C276  1  0.44081880  0.89324880  0.81952500  1
  C  C277  1  0.10675120  0.44081880  0.81952500  1
  C  C278  1  0.55918120  0.10675120  0.81952500  1
  C  C279  1  0.89324880  0.55918120  0.81952500  1
  C  C280  1  0.94081880  0.39324880  0.31952500  1
  C  C281  1  0.60675120  0.94081880  0.31952500  1
  C  C282  1  0.05918120  0.60675120  0.31952500  1
  C  C283  1  0.39324880  0.05918120  0.31952500  1
  H  H284  1  0.59308000  0.10559000  0.16479000  1
  H  H285  1  0.89441000  0.59308000  0.16479000  1
  H  H286  1  0.40692000  0.89441000  0.16479000  1
  H  H287  1  0.10559000  0.40692000  0.16479000  1
  H  H288  1  0.09308000  0.60559000  0.66479000  1
  H  H289  1  0.39441000  0.09308000  0.66479000  1
  H  H290  1  0.90692000  0.39441000  0.66479000  1
  H  H291  1  0.60559000  0.90692000  0.66479000  1
  H  H292  1  0.40692000  0.89441000  0.83521000  1
  H  H293  1  0.10559000  0.40692000  0.83521000  1
  H  H294  1  0.59308000  0.10559000  0.83521000  1
  H  H295  1  0.89441000  0.59308000  0.83521000  1
  H  H296  1  0.90692000  0.39441000  0.33521000  1
  H  H297  1  0.60559000  0.90692000  0.33521000  1
  H  H298  1  0.09308000  0.60559000  0.33521000  1
  H  H299  1  0.39441000  0.09308000  0.33521000  1
  C  C300  1  0.51321150  0.15693110  0.17996500  1
  C  C301  1  0.84306890  0.51321150  0.17996500  1
  C  C302  1  0.48678850  0.84306890  0.17996500  1
  C  C303  1  0.15693110  0.48678850  0.17996500  1
  C  C304  1  0.01321150  0.65693110  0.67996500  1
  C  C305  1  0.34306890  0.01321150  0.67996500  1
  C  C306  1  0.98678850  0.34306890  0.67996500  1
  C  C307  1  0.65693110  0.98678850  0.67996500  1
  C  C308  1  0.48678850  0.84306890  0.82003500  1
  C  C309  1  0.15693110  0.48678850  0.82003500  1
  C  C310  1  0.51321150  0.15693110  0.82003500  1
  C  C311  1  0.84306890  0.51321150  0.82003500  1
  C  C312  1  0.98678850  0.34306890  0.32003500  1
  C  C313  1  0.65693110  0.98678850  0.32003500  1
  C  C314  1  0.01321150  0.65693110  0.32003500  1
  C  C315  1  0.34306890  0.01321150  0.32003500  1
  C  C316  1  0.46361140  0.15862120  0.20290600  1
  C  C317  1  0.84137880  0.46361140  0.20290600  1
  C  C318  1  0.53638860  0.84137880  0.20290600  1
  C  C319  1  0.15862120  0.53638860  0.20290600  1
  C  C320  1  0.96361140  0.65862120  0.70290600  1
  C  C321  1  0.34137880  0.96361140  0.70290600  1
  C  C322  1  0.03638860  0.34137880  0.70290600  1
  C  C323  1  0.65862120  0.03638860  0.70290600  1
  C  C324  1  0.53638860  0.84137880  0.79709400  1
  C  C325  1  0.15862120  0.53638860  0.79709400  1
  C  C326  1  0.46361140  0.15862120  0.79709400  1
  C  C327  1  0.84137880  0.46361140  0.79709400  1
  C  C328  1  0.03638860  0.34137880  0.29709400  1
  C  C329  1  0.65862120  0.03638860  0.29709400  1
  C  C330  1  0.96361140  0.65862120  0.29709400  1
  C  C331  1  0.34137880  0.96361140  0.29709400  1
  H  H332  1  0.43220000  0.19291000  0.20255000  1
  H  H333  1  0.80709000  0.43220000  0.20255000  1
  H  H334  1  0.56780000  0.80709000  0.20255000  1
  H  H335  1  0.19291000  0.56780000  0.20255000  1
  H  H336  1  0.93220000  0.69291000  0.70255000  1
  H  H337  1  0.30709000  0.93220000  0.70255000  1
  H  H338  1  0.06780000  0.30709000  0.70255000  1
  H  H339  1  0.69291000  0.06780000  0.70255000  1
  H  H340  1  0.56780000  0.80709000  0.79745000  1
  H  H341  1  0.19291000  0.56780000  0.79745000  1
  H  H342  1  0.43220000  0.19291000  0.79745000  1
  H  H343  1  0.80709000  0.43220000  0.79745000  1
  H  H344  1  0.06780000  0.30709000  0.29745000  1
  H  H345  1  0.69291000  0.06780000  0.29745000  1
  H  H346  1  0.93220000  0.69291000  0.29745000  1
  H  H347  1  0.30709000  0.93220000  0.29745000  1
  C  C348  1  0.45997120  0.11012120  0.22635500  1
  C  C349  1  0.88987880  0.45997120  0.22635500  1
  C  C350  1  0.54002880  0.88987880  0.22635500  1
  C  C351  1  0.11012120  0.54002880  0.22635500  1
  C  C352  1  0.95997120  0.61012120  0.72635500  1
  C  C353  1  0.38987880  0.95997120  0.72635500  1
  C  C354  1  0.04002880  0.38987880  0.72635500  1
  C  C355  1  0.61012120  0.04002880  0.72635500  1
  C  C356  1  0.54002880  0.88987880  0.77364500  1
  C  C357  1  0.11012120  0.54002880  0.77364500  1
  C  C358  1  0.45997120  0.11012120  0.77364500  1
  C  C359  1  0.88987880  0.45997120  0.77364500  1
  C  C360  1  0.04002880  0.38987880  0.27364500  1
  C  C361  1  0.61012120  0.04002880  0.27364500  1
  C  C362  1  0.95997120  0.61012120  0.27364500  1
  C  C363  1  0.38987880  0.95997120  0.27364500  1
  H  H364  1  0.42607000  0.11127000  0.24203000  1
  H  H365  1  0.88873000  0.42607000  0.24203000  1
  H  H366  1  0.57393000  0.88873000  0.24203000  1
  H  H367  1  0.11127000  0.57393000  0.24203000  1
  H  H368  1  0.92607000  0.61127000  0.74203000  1
  H  H369  1  0.38873000  0.92607000  0.74203000  1
  H  H370  1  0.07393000  0.38873000  0.74203000  1
  H  H371  1  0.61127000  0.07393000  0.74203000  1
  H  H372  1  0.57393000  0.88873000  0.75797000  1
  H  H373  1  0.11127000  0.57393000  0.75797000  1
  H  H374  1  0.42607000  0.11127000  0.75797000  1
  H  H375  1  0.88873000  0.42607000  0.75797000  1
  H  H376  1  0.07393000  0.38873000  0.25797000  1
  H  H377  1  0.61127000  0.07393000  0.25797000  1
  H  H378  1  0.92607000  0.61127000  0.25797000  1
  H  H379  1  0.38873000  0.92607000  0.25797000  1
  C  C380  1  0.50594130  0.05994100  0.22686500  1
  C  C381  1  0.94005900  0.50594130  0.22686500  1
  C  C382  1  0.49405870  0.94005900  0.22686500  1
  C  C383  1  0.05994100  0.49405870  0.22686500  1
  C  C384  1  0.00594130  0.55994100  0.72686500  1
  C  C385  1  0.44005900  0.00594130  0.72686500  1
  C  C386  1  0.99405870  0.44005900  0.72686500  1
  C  C387  1  0.55994100  0.99405870  0.72686500  1
  C  C388  1  0.49405870  0.94005900  0.77313500  1
  C  C389  1  0.05994100  0.49405870  0.77313500  1
  C  C390  1  0.50594130  0.05994100  0.77313500  1
  C  C391  1  0.94005900  0.50594130  0.77313500  1
  C  C392  1  0.99405870  0.44005900  0.27313500  1
  C  C393  1  0.55994100  0.99405870  0.27313500  1
  C  C394  1  0.00594130  0.55994100  0.27313500  1
  C  C395  1  0.44005900  0.00594130  0.27313500  1
  C  C396  1  0.55554120  0.05825110  0.20392500  1
  C  C397  1  0.94174890  0.55554120  0.20392500  1
  C  C398  1  0.44445880  0.94174890  0.20392500  1
  C  C399  1  0.05825110  0.44445880  0.20392500  1
  C  C400  1  0.05554120  0.55825110  0.70392500  1
  C  C401  1  0.44174890  0.05554120  0.70392500  1
  C  C402  1  0.94445880  0.44174890  0.70392500  1
  C  C403  1  0.55825110  0.94445880  0.70392500  1
  C  C404  1  0.44445880  0.94174890  0.79607500  1
  C  C405  1  0.05825110  0.44445880  0.79607500  1
  C  C406  1  0.55554120  0.05825110  0.79607500  1
  C  C407  1  0.94174890  0.55554120  0.79607500  1
  C  C408  1  0.94445880  0.44174890  0.29607500  1
  C  C409  1  0.55825110  0.94445880  0.29607500  1
  C  C410  1  0.05554120  0.55825110  0.29607500  1
  C  C411  1  0.44174890  0.05554120  0.29607500  1
  H  H412  1  0.58695000  0.02395000  0.20427000  1
  H  H413  1  0.97605000  0.58695000  0.20427000  1
  H  H414  1  0.41305000  0.97605000  0.20427000  1
  H  H415  1  0.02395000  0.41305000  0.20427000  1
  H  H416  1  0.08695000  0.52395000  0.70427000  1
  H  H417  1  0.47605000  0.08695000  0.70427000  1
  H  H418  1  0.91305000  0.47605000  0.70427000  1
  H  H419  1  0.52395000  0.91305000  0.70427000  1
  H  H420  1  0.41305000  0.97605000  0.79573000  1
  H  H421  1  0.02395000  0.41305000  0.79573000  1
  H  H422  1  0.58695000  0.02395000  0.79573000  1
  H  H423  1  0.97605000  0.58695000  0.79573000  1
  H  H424  1  0.91305000  0.47605000  0.29573000  1
  H  H425  1  0.52395000  0.91305000  0.29573000  1
  H  H426  1  0.08695000  0.52395000  0.29573000  1
  H  H427  1  0.47605000  0.08695000  0.29573000  1
  C  C428  1  0.50000000  0.00000000  0.25000000  1
  C  C429  1  0.00000000  0.50000000  0.25000000  1
  C  C430  1  0.00000000  0.50000000  0.75000000  1
  C  C431  1  0.50000000  0.00000000  0.75000000  1
