# generated using pymatgen
data_Ga4H12C15O31
_symmetry_space_group_name_H-M   'P 1'
_cell_length_a   11.54080000
_cell_length_b   11.54080000
_cell_length_c   11.54080000
_cell_angle_alpha   90.00000000
_cell_angle_beta   90.00000000
_cell_angle_gamma   90.00000000
_symmetry_Int_Tables_number   1
_chemical_formula_structural   Ga4H12C15O31
_chemical_formula_sum   'Ga8 H24 C30 O62'
_cell_volume   1537.11989800
_cell_formula_units_Z   2
loop_
 _symmetry_equiv_pos_site_id
 _symmetry_equiv_pos_as_xyz
  1  'x, y, z'
loop_
 _atom_site_type_symbol
 _atom_site_label
 _atom_site_symmetry_multiplicity
 _atom_site_fract_x
 _atom_site_fract_y
 _atom_site_fract_z
 _atom_site_occupancy
  Ga  Ga20  1  0.25000000  0.25000000  0.25000000  1
  Ga  Ga21  1  0.75000000  0.75000000  0.75000000  1
  Ga  Ga22  1  0.75000000  0.75000000  0.25000000  1
  Ga  Ga23  1  0.75000000  0.25000000  0.75000000  1
  Ga  Ga24  1  0.25000000  0.75000000  0.75000000  1
  Ga  Ga25  1  0.25000000  0.25000000  0.75000000  1
  Ga  Ga26  1  0.25000000  0.75000000  0.25000000  1
  Ga  Ga27  1  0.75000000  0.25000000  0.25000000  1
  C  C28  1  0.24213000  0.26403000  0.00000000  1
  C  C29  1  0.00000000  0.24213000  0.26403000  1
  C  C30  1  0.26403000  0.00000000  0.24213000  1
  C  C31  1  0.74213000  0.76403000  0.50000000  1
  C  C32  1  0.50000000  0.74213000  0.76403000  1
  C  C33  1  0.76403000  0.50000000  0.74213000  1
  C  C34  1  0.75787000  0.73597000  0.00000000  1
  C  C35  1  0.75787000  0.26403000  0.00000000  1
  C  C36  1  0.24213000  0.73597000  0.00000000  1
  C  C37  1  0.00000000  0.75787000  0.73597000  1
  C  C38  1  0.00000000  0.75787000  0.26403000  1
  C  C39  1  0.00000000  0.24213000  0.73597000  1
  C  C40  1  0.73597000  0.00000000  0.75787000  1
  C  C41  1  0.26403000  0.00000000  0.75787000  1
  C  C42  1  0.73597000  0.00000000  0.24213000  1
  C  C43  1  0.25787000  0.23597000  0.50000000  1
  C  C44  1  0.25787000  0.76403000  0.50000000  1
  C  C45  1  0.74213000  0.23597000  0.50000000  1
  C  C46  1  0.50000000  0.25787000  0.23597000  1
  C  C47  1  0.50000000  0.25787000  0.76403000  1
  C  C48  1  0.50000000  0.74213000  0.23597000  1
  C  C49  1  0.23597000  0.50000000  0.25787000  1
  C  C50  1  0.76403000  0.50000000  0.25787000  1
  C  C51  1  0.23597000  0.50000000  0.74213000  1
  H  H52  1  0.31200000  0.22390000  0.00000000  1
  H  H53  1  0.00000000  0.31200000  0.22390000  1
  H  H54  1  0.22390000  0.00000000  0.31200000  1
  H  H55  1  0.81200000  0.72390000  0.50000000  1
  H  H56  1  0.50000000  0.81200000  0.72390000  1
  H  H57  1  0.72390000  0.50000000  0.81200000  1
  H  H58  1  0.68800000  0.77610000  0.00000000  1
  H  H59  1  0.68800000  0.22390000  0.00000000  1
  H  H60  1  0.31200000  0.77610000  0.00000000  1
  H  H61  1  0.00000000  0.68800000  0.77610000  1
  H  H62  1  0.00000000  0.68800000  0.22390000  1
  H  H63  1  0.00000000  0.31200000  0.77610000  1
  H  H64  1  0.77610000  0.00000000  0.68800000  1
  H  H65  1  0.22390000  0.00000000  0.68800000  1
  H  H66  1  0.77610000  0.00000000  0.31200000  1
  H  H67  1  0.18800000  0.27610000  0.50000000  1
  H  H68  1  0.18800000  0.72390000  0.50000000  1
  H  H69  1  0.81200000  0.27610000  0.50000000  1
  H  H70  1  0.50000000  0.18800000  0.27610000  1
  H  H71  1  0.50000000  0.18800000  0.72390000  1
  H  H72  1  0.50000000  0.81200000  0.27610000  1
  H  H73  1  0.27610000  0.50000000  0.18800000  1
  H  H74  1  0.72390000  0.50000000  0.18800000  1
  H  H75  1  0.27610000  0.50000000  0.81200000  1
  O  O76  1  0.19684170  0.29001180  0.09436160  1
  O  O77  1  0.09436160  0.19684170  0.29001180  1
  O  O78  1  0.29001180  0.09436160  0.19684170  1
  O  O79  1  0.69684170  0.79001180  0.59436160  1
  O  O80  1  0.59436160  0.69684170  0.79001180  1
  O  O81  1  0.79001180  0.59436160  0.69684170  1
  O  O82  1  0.80315830  0.70998820  0.09436160  1
  O  O83  1  0.80315830  0.29001180  0.90563840  1
  O  O84  1  0.19684170  0.70998820  0.90563840  1
  O  O85  1  0.09436160  0.80315830  0.70998820  1
  O  O86  1  0.90563840  0.80315830  0.29001180  1
  O  O87  1  0.90563840  0.19684170  0.70998820  1
  O  O88  1  0.70998820  0.09436160  0.80315830  1
  O  O89  1  0.29001180  0.90563840  0.80315830  1
  O  O90  1  0.70998820  0.90563840  0.19684170  1
  O  O91  1  0.30315830  0.20998820  0.59436160  1
  O  O92  1  0.30315830  0.79001180  0.40563840  1
  O  O93  1  0.69684170  0.20998820  0.40563840  1
  O  O94  1  0.59436160  0.30315830  0.20998820  1
  O  O95  1  0.40563840  0.30315830  0.79001180  1
  O  O96  1  0.40563840  0.69684170  0.20998820  1
  O  O97  1  0.20998820  0.59436160  0.30315830  1
  O  O98  1  0.79001180  0.40563840  0.30315830  1
  O  O99  1  0.20998820  0.40563840  0.69684170  1
  O  O100  1  0.80315830  0.70998820  0.90563840  1
  O  O101  1  0.90563840  0.80315830  0.70998820  1
  O  O102  1  0.70998820  0.90563840  0.80315830  1
  O  O103  1  0.30315830  0.20998820  0.40563840  1
  O  O104  1  0.40563840  0.30315830  0.20998820  1
  O  O105  1  0.20998820  0.40563840  0.30315830  1
  O  O106  1  0.19684170  0.29001180  0.90563840  1
  O  O107  1  0.19684170  0.70998820  0.09436160  1
  O  O108  1  0.80315830  0.29001180  0.09436160  1
  O  O109  1  0.90563840  0.19684170  0.29001180  1
  O  O110  1  0.09436160  0.19684170  0.70998820  1
  O  O111  1  0.09436160  0.80315830  0.29001180  1
  O  O112  1  0.29001180  0.90563840  0.19684170  1
  O  O113  1  0.70998820  0.09436160  0.19684170  1
  O  O114  1  0.29001180  0.09436160  0.80315830  1
  O  O115  1  0.69684170  0.79001180  0.40563840  1
  O  O116  1  0.69684170  0.20998820  0.59436160  1
  O  O117  1  0.30315830  0.79001180  0.59436160  1
  O  O118  1  0.40563840  0.69684170  0.79001180  1
  O  O119  1  0.59436160  0.69684170  0.20998820  1
  O  O120  1  0.59436160  0.30315830  0.79001180  1
  O  O121  1  0.79001180  0.40563840  0.69684170  1
  O  O122  1  0.20998820  0.59436160  0.69684170  1
  O  O123  1  0.79001180  0.59436160  0.30315830  1
