# generated using pymatgen
data_Th3H24C32O17
_symmetry_space_group_name_H-M   'P 1'
_cell_length_a   25.52231700
_cell_length_b   25.52231700
_cell_length_c   14.62751100
_cell_angle_alpha   90.00000000
_cell_angle_beta   90.00000000
_cell_angle_gamma   90.00000000
_symmetry_Int_Tables_number   1
_chemical_formula_structural   Th3H24C32O17
_chemical_formula_sum   'Th12 H96 C128 O68'
_cell_volume   9528.19486327
_cell_formula_units_Z   4
loop_
 _symmetry_equiv_pos_site_id
 _symmetry_equiv_pos_as_xyz
  1  'x, y, z'
loop_
 _atom_site_type_symbol
 _atom_site_label
 _atom_site_symmetry_multiplicity
 _atom_site_fract_x
 _atom_site_fract_y
 _atom_site_fract_z
 _atom_site_occupancy
  Th  Th0  1  0.10914300  0.50000000  0.00000000  1
  Th  Th1  1  0.89085700  0.50000000  0.00000000  1
  Th  Th2  1  0.50000000  0.10914300  0.50000000  1
  Th  Th3  1  0.50000000  0.89085700  0.50000000  1
  Th  Th4  1  0.00000000  0.42354400  0.13195900  1
  Th  Th5  1  0.00000000  0.57645600  0.13195900  1
  Th  Th6  1  0.57645600  0.00000000  0.63195900  1
  Th  Th7  1  0.42354400  0.00000000  0.63195900  1
  Th  Th8  1  0.00000000  0.42354400  0.86804100  1
  Th  Th9  1  0.00000000  0.57645600  0.86804100  1
  Th  Th10  1  0.42354400  0.00000000  0.36804100  1
  Th  Th11  1  0.57645600  0.00000000  0.36804100  1
  O  O12  1  0.14926000  0.43756000  0.10941200  1
  O  O13  1  0.85074000  0.56244000  0.10941200  1
  O  O14  1  0.56244000  0.14926000  0.60941200  1
  O  O15  1  0.43756000  0.85074000  0.60941200  1
  O  O16  1  0.85074000  0.43756000  0.89058800  1
  O  O17  1  0.14926000  0.56244000  0.89058800  1
  O  O18  1  0.43756000  0.14926000  0.39058800  1
  O  O19  1  0.56244000  0.85074000  0.39058800  1
  O  O20  1  0.85074000  0.56244000  0.89058800  1
  O  O21  1  0.14926000  0.43756000  0.89058800  1
  O  O22  1  0.43756000  0.85074000  0.39058800  1
  O  O23  1  0.56244000  0.14926000  0.39058800  1
  O  O24  1  0.14926000  0.56244000  0.10941200  1
  O  O25  1  0.85074000  0.43756000  0.10941200  1
  O  O26  1  0.56244000  0.85074000  0.60941200  1
  O  O27  1  0.43756000  0.14926000  0.60941200  1
  O  O28  1  0.05039000  0.50000000  0.12421600  1
  O  O29  1  0.94961000  0.50000000  0.12421600  1
  O  O30  1  0.50000000  0.05039000  0.62421600  1
  O  O31  1  0.50000000  0.94961000  0.62421600  1
  O  O32  1  0.94961000  0.50000000  0.87578400  1
  O  O33  1  0.05039000  0.50000000  0.87578400  1
  O  O34  1  0.50000000  0.05039000  0.37578400  1
  O  O35  1  0.50000000  0.94961000  0.37578400  1
  O  O36  1  0.95122000  0.42879000  0.00000000  1
  O  O37  1  0.04878000  0.57121000  0.00000000  1
  O  O38  1  0.57121000  0.95122000  0.50000000  1
  O  O39  1  0.42879000  0.04878000  0.50000000  1
  O  O40  1  0.04878000  0.42879000  0.00000000  1
  O  O41  1  0.95122000  0.57121000  0.00000000  1
  O  O42  1  0.42879000  0.95122000  0.50000000  1
  O  O43  1  0.57121000  0.04878000  0.50000000  1
  C  C44  1  0.13336000  0.40096000  0.15748000  1
  C  C45  1  0.86664000  0.59904000  0.15748000  1
  C  C46  1  0.59904000  0.13336000  0.65748000  1
  C  C47  1  0.40096000  0.86664000  0.65748000  1
  C  C48  1  0.86664000  0.40096000  0.84252000  1
  C  C49  1  0.13336000  0.59904000  0.84252000  1
  C  C50  1  0.40096000  0.13336000  0.34252000  1
  C  C51  1  0.59904000  0.86664000  0.34252000  1
  C  C52  1  0.86664000  0.59904000  0.84252000  1
  C  C53  1  0.13336000  0.40096000  0.84252000  1
  C  C54  1  0.40096000  0.86664000  0.34252000  1
  C  C55  1  0.59904000  0.13336000  0.34252000  1
  C  C56  1  0.13336000  0.59904000  0.15748000  1
  C  C57  1  0.86664000  0.40096000  0.15748000  1
  C  C58  1  0.59904000  0.86664000  0.65748000  1
  C  C59  1  0.40096000  0.13336000  0.65748000  1
  C  C76  1  0.17455000  0.36245000  0.18491200  1
  C  C77  1  0.82545000  0.63755000  0.18491200  1
  C  C78  1  0.63755000  0.17455000  0.68491200  1
  C  C79  1  0.36245000  0.82545000  0.68491200  1
  C  C80  1  0.82545000  0.36245000  0.81508800  1
  C  C81  1  0.17455000  0.63755000  0.81508800  1
  C  C82  1  0.36245000  0.17455000  0.31508800  1
  C  C83  1  0.63755000  0.82545000  0.31508800  1
  C  C84  1  0.82545000  0.63755000  0.81508800  1
  C  C85  1  0.17455000  0.36245000  0.81508800  1
  C  C86  1  0.36245000  0.82545000  0.31508800  1
  C  C87  1  0.63755000  0.17455000  0.31508800  1
  C  C88  1  0.17455000  0.63755000  0.18491200  1
  C  C89  1  0.82545000  0.36245000  0.18491200  1
  C  C90  1  0.63755000  0.82545000  0.68491200  1
  C  C91  1  0.36245000  0.17455000  0.68491200  1
  C  C92  1  0.16354000  0.32266000  0.24701100  1
  C  C93  1  0.83646000  0.67734000  0.24701100  1
  C  C94  1  0.67734000  0.16354000  0.74701100  1
  C  C95  1  0.32266000  0.83646000  0.74701100  1
  C  C96  1  0.83646000  0.32266000  0.75298900  1
  C  C97  1  0.16354000  0.67734000  0.75298900  1
  C  C98  1  0.32266000  0.16354000  0.25298900  1
  C  C99  1  0.67734000  0.83646000  0.25298900  1
  C  C100  1  0.83646000  0.67734000  0.75298900  1
  C  C101  1  0.16354000  0.32266000  0.75298900  1
  C  C102  1  0.32266000  0.83646000  0.25298900  1
  C  C103  1  0.67734000  0.16354000  0.25298900  1
  C  C104  1  0.16354000  0.67734000  0.24701100  1
  C  C105  1  0.83646000  0.32266000  0.24701100  1
  C  C106  1  0.67734000  0.83646000  0.74701100  1
  C  C107  1  0.32266000  0.16354000  0.74701100  1
  H  H108  1  0.12949000  0.31976000  0.27286000  1
  H  H109  1  0.87051000  0.68024000  0.27286000  1
  H  H110  1  0.68024000  0.12949000  0.77286000  1
  H  H111  1  0.31976000  0.87051000  0.77286000  1
  H  H112  1  0.87051000  0.31976000  0.72714000  1
  H  H113  1  0.12949000  0.68024000  0.72714000  1
  H  H114  1  0.31976000  0.12949000  0.22714000  1
  H  H115  1  0.68024000  0.87051000  0.22714000  1
  H  H116  1  0.87051000  0.68024000  0.72714000  1
  H  H117  1  0.12949000  0.31976000  0.72714000  1
  H  H118  1  0.31976000  0.87051000  0.22714000  1
  H  H119  1  0.68024000  0.12949000  0.22714000  1
  H  H120  1  0.12949000  0.68024000  0.27286000  1
  H  H121  1  0.87051000  0.31976000  0.27286000  1
  H  H122  1  0.68024000  0.87051000  0.77286000  1
  H  H123  1  0.31976000  0.12949000  0.77286000  1
  C  C124  1  0.20235000  0.28695000  0.27111000  1
  C  C125  1  0.79765000  0.71305000  0.27111000  1
  C  C126  1  0.71305000  0.20235000  0.77111000  1
  C  C127  1  0.28695000  0.79765000  0.77111000  1
  C  C128  1  0.79765000  0.28695000  0.72889000  1
  C  C129  1  0.20235000  0.71305000  0.72889000  1
  C  C130  1  0.28695000  0.20235000  0.22889000  1
  C  C131  1  0.71305000  0.79765000  0.22889000  1
  C  C132  1  0.79765000  0.71305000  0.72889000  1
  C  C133  1  0.20235000  0.28695000  0.72889000  1
  C  C134  1  0.28695000  0.79765000  0.22889000  1
  C  C135  1  0.71305000  0.20235000  0.22889000  1
  C  C136  1  0.20235000  0.71305000  0.27111000  1
  C  C137  1  0.79765000  0.28695000  0.27111000  1
  C  C138  1  0.71305000  0.79765000  0.77111000  1
  C  C139  1  0.28695000  0.20235000  0.77111000  1
  H  H140  1  0.19479000  0.25975000  0.31345000  1
  H  H141  1  0.80521000  0.74025000  0.31345000  1
  H  H142  1  0.74025000  0.19479000  0.81345000  1
  H  H143  1  0.25975000  0.80521000  0.81345000  1
  H  H144  1  0.80521000  0.25975000  0.68655000  1
  H  H145  1  0.19479000  0.74025000  0.68655000  1
  H  H146  1  0.25975000  0.19479000  0.18655000  1
  H  H147  1  0.74025000  0.80521000  0.18655000  1
  H  H148  1  0.80521000  0.74025000  0.68655000  1
  H  H149  1  0.19479000  0.25975000  0.68655000  1
  H  H150  1  0.25975000  0.80521000  0.18655000  1
  H  H151  1  0.74025000  0.19479000  0.18655000  1
  H  H152  1  0.19479000  0.74025000  0.31345000  1
  H  H153  1  0.80521000  0.25975000  0.31345000  1
  H  H154  1  0.74025000  0.80521000  0.81345000  1
  H  H155  1  0.25975000  0.19479000  0.81345000  1
  C  C156  1  0.25214000  0.29115000  0.23321100  1
  C  C157  1  0.74786000  0.70885000  0.23321100  1
  C  C158  1  0.70885000  0.25214000  0.73321100  1
  C  C159  1  0.29115000  0.74786000  0.73321100  1
  C  C160  1  0.74786000  0.29115000  0.76678900  1
  C  C161  1  0.25214000  0.70885000  0.76678900  1
  C  C162  1  0.29115000  0.25214000  0.26678900  1
  C  C163  1  0.70885000  0.74786000  0.26678900  1
  C  C164  1  0.74786000  0.70885000  0.76678900  1
  C  C165  1  0.25214000  0.29115000  0.76678900  1
  C  C166  1  0.29115000  0.74786000  0.26678900  1
  C  C167  1  0.70885000  0.25214000  0.26678900  1
  C  C168  1  0.25214000  0.70885000  0.23321100  1
  C  C169  1  0.74786000  0.29115000  0.23321100  1
  C  C170  1  0.70885000  0.74786000  0.73321100  1
  C  C171  1  0.29115000  0.25214000  0.73321100  1
  C  C172  1  0.26314000  0.33085000  0.17111100  1
  C  C173  1  0.73686000  0.66915000  0.17111100  1
  C  C174  1  0.66915000  0.26314000  0.67111100  1
  C  C175  1  0.33085000  0.73686000  0.67111100  1
  C  C176  1  0.73686000  0.33085000  0.82888900  1
  C  C177  1  0.26314000  0.66915000  0.82888900  1
  C  C178  1  0.33085000  0.26314000  0.32888900  1
  C  C179  1  0.66915000  0.73686000  0.32888900  1
  C  C180  1  0.73686000  0.66915000  0.82888900  1
  C  C181  1  0.26314000  0.33085000  0.82888900  1
  C  C182  1  0.33085000  0.73686000  0.32888900  1
  C  C183  1  0.66915000  0.26314000  0.32888900  1
  C  C184  1  0.26314000  0.66915000  0.17111100  1
  C  C185  1  0.73686000  0.33085000  0.17111100  1
  C  C186  1  0.66915000  0.73686000  0.67111100  1
  C  C187  1  0.33085000  0.26314000  0.67111100  1
  C  C188  1  0.22435000  0.36655000  0.14710000  1
  C  C189  1  0.77565000  0.63345000  0.14710000  1
  C  C190  1  0.63345000  0.22435000  0.64710000  1
  C  C191  1  0.36655000  0.77565000  0.64710000  1
  C  C192  1  0.77565000  0.36655000  0.85290000  1
  C  C193  1  0.22435000  0.63345000  0.85290000  1
  C  C194  1  0.36655000  0.22435000  0.35290000  1
  C  C195  1  0.63345000  0.77565000  0.35290000  1
  C  C196  1  0.77565000  0.63345000  0.85290000  1
  C  C197  1  0.22435000  0.36655000  0.85290000  1
  C  C198  1  0.36655000  0.77565000  0.35290000  1
  C  C199  1  0.63345000  0.22435000  0.35290000  1
  C  C200  1  0.22435000  0.63345000  0.14710000  1
  C  C201  1  0.77565000  0.36655000  0.14710000  1
  C  C202  1  0.63345000  0.77565000  0.64710000  1
  C  C203  1  0.36655000  0.22435000  0.64710000  1
  H  H204  1  0.23177000  0.39366000  0.10463000  1
  H  H205  1  0.76823000  0.60634000  0.10463000  1
  H  H206  1  0.60634000  0.23177000  0.60463000  1
  H  H207  1  0.39366000  0.76823000  0.60463000  1
  H  H208  1  0.76823000  0.39366000  0.89537000  1
  H  H209  1  0.23177000  0.60634000  0.89537000  1
  H  H210  1  0.39366000  0.23177000  0.39537000  1
  H  H211  1  0.60634000  0.76823000  0.39537000  1
  H  H212  1  0.76823000  0.60634000  0.89537000  1
  H  H213  1  0.23177000  0.39366000  0.89537000  1
  H  H214  1  0.39366000  0.76823000  0.39537000  1
  H  H215  1  0.60634000  0.23177000  0.39537000  1
  H  H216  1  0.23177000  0.60634000  0.10463000  1
  H  H217  1  0.76823000  0.39366000  0.10463000  1
  H  H218  1  0.60634000  0.76823000  0.60463000  1
  H  H219  1  0.39366000  0.23177000  0.60463000  1
  O  O220  1  0.08796000  0.39346000  0.18431100  1
  O  O221  1  0.91204000  0.60654000  0.18431100  1
  O  O222  1  0.60654000  0.08796000  0.68431100  1
  O  O223  1  0.39346000  0.91204000  0.68431100  1
  O  O224  1  0.91204000  0.39346000  0.81568900  1
  O  O225  1  0.08796000  0.60654000  0.81568900  1
  O  O226  1  0.39346000  0.08796000  0.31568900  1
  O  O227  1  0.60654000  0.91204000  0.31568900  1
  O  O228  1  0.91204000  0.60654000  0.81568900  1
  O  O229  1  0.08796000  0.39346000  0.81568900  1
  O  O230  1  0.39346000  0.91204000  0.31568900  1
  O  O231  1  0.60654000  0.08796000  0.31568900  1
  O  O232  1  0.08796000  0.60654000  0.18431100  1
  O  O233  1  0.91204000  0.39346000  0.18431100  1
  O  O234  1  0.60654000  0.91204000  0.68431100  1
  O  O235  1  0.39346000  0.08796000  0.68431100  1
  C  C240  1  0.31577000  0.33359000  0.12621500  1
  C  C241  1  0.68423000  0.66641000  0.12621500  1
  C  C242  1  0.66641000  0.31577000  0.62621500  1
  C  C243  1  0.33359000  0.68423000  0.62621500  1
  C  C244  1  0.68423000  0.33359000  0.87378500  1
  C  C245  1  0.31577000  0.66641000  0.87378500  1
  C  C246  1  0.33359000  0.31577000  0.37378500  1
  C  C247  1  0.66641000  0.68423000  0.37378500  1
  C  C248  1  0.68423000  0.66641000  0.87378500  1
  C  C249  1  0.31577000  0.33359000  0.87378500  1
  C  C250  1  0.33359000  0.68423000  0.37378500  1
  C  C251  1  0.66641000  0.31577000  0.37378500  1
  C  C252  1  0.31577000  0.66641000  0.12621500  1
  C  C253  1  0.68423000  0.33359000  0.12621500  1
  C  C254  1  0.66641000  0.68423000  0.62621500  1
  C  C255  1  0.33359000  0.31577000  0.62621500  1
  H  H256  1  0.34224000  0.31907000  0.16741000  1
  H  H257  1  0.65776000  0.68093000  0.16741000  1
  H  H258  1  0.68093000  0.34224000  0.66741000  1
  H  H259  1  0.31907000  0.65776000  0.66741000  1
  H  H260  1  0.65776000  0.31907000  0.83259000  1
  H  H261  1  0.34224000  0.68093000  0.83259000  1
  H  H262  1  0.31907000  0.34224000  0.33259000  1
  H  H263  1  0.68093000  0.65776000  0.33259000  1
  H  H264  1  0.65776000  0.68093000  0.83259000  1
  H  H265  1  0.34224000  0.31907000  0.83259000  1
  H  H266  1  0.31907000  0.65776000  0.33259000  1
  H  H267  1  0.68093000  0.34224000  0.33259000  1
  H  H268  1  0.34224000  0.68093000  0.16741000  1
  H  H269  1  0.65776000  0.31907000  0.16741000  1
  H  H270  1  0.68093000  0.65776000  0.66741000  1
  H  H271  1  0.31907000  0.34224000  0.66741000  1
  H  H272  1  0.32415000  0.37011000  0.11226000  1
  H  H273  1  0.67585000  0.62989000  0.11226000  1
  H  H274  1  0.62989000  0.32415000  0.61226000  1
  H  H275  1  0.37011000  0.67585000  0.61226000  1
  H  H276  1  0.67585000  0.37011000  0.88774000  1
  H  H277  1  0.32415000  0.62989000  0.88774000  1
  H  H278  1  0.37011000  0.32415000  0.38774000  1
  H  H279  1  0.62989000  0.67585000  0.38774000  1
  H  H280  1  0.67585000  0.62989000  0.88774000  1
  H  H281  1  0.32415000  0.37011000  0.88774000  1
  H  H282  1  0.37011000  0.67585000  0.38774000  1
  H  H283  1  0.62989000  0.32415000  0.38774000  1
  H  H284  1  0.32415000  0.62989000  0.11226000  1
  H  H285  1  0.67585000  0.37011000  0.11226000  1
  H  H286  1  0.62989000  0.67585000  0.61226000  1
  H  H287  1  0.37011000  0.32415000  0.61226000  1
  H  H288  1  0.31502000  0.31315000  0.06939000  1
  H  H289  1  0.68498000  0.68685000  0.06939000  1
  H  H290  1  0.68685000  0.31502000  0.56939000  1
  H  H291  1  0.31315000  0.68498000  0.56939000  1
  H  H292  1  0.68498000  0.31315000  0.93061000  1
  H  H293  1  0.31502000  0.68685000  0.93061000  1
  H  H294  1  0.31315000  0.31502000  0.43061000  1
  H  H295  1  0.68685000  0.68498000  0.43061000  1
  H  H296  1  0.68498000  0.68685000  0.93061000  1
  H  H297  1  0.31502000  0.31315000  0.93061000  1
  H  H298  1  0.31315000  0.68498000  0.43061000  1
  H  H299  1  0.68685000  0.31502000  0.43061000  1
  H  H300  1  0.31502000  0.68685000  0.06939000  1
  H  H301  1  0.68498000  0.31315000  0.06939000  1
  H  H302  1  0.68685000  0.68498000  0.56939000  1
  H  H303  1  0.31315000  0.31502000  0.56939000  1
