# generated using pymatgen
data_Zr3H4C12(SO6)2
_symmetry_space_group_name_H-M   'P 1'
_cell_length_a   27.66237083
_cell_length_b   27.66237083
_cell_length_c   27.66237083
_cell_angle_alpha   60.00000000
_cell_angle_beta   60.00000000
_cell_angle_gamma   60.00000000
_symmetry_Int_Tables_number   1
_chemical_formula_structural   Zr3H4C12(SO6)2
_chemical_formula_sum   'Zr36 H48 C144 S24 O144'
_cell_volume   14967.63552974
_cell_formula_units_Z   12
loop_
 _symmetry_equiv_pos_site_id
 _symmetry_equiv_pos_as_xyz
  1  'x, y, z'
loop_
 _atom_site_type_symbol
 _atom_site_label
 _atom_site_symmetry_multiplicity
 _atom_site_fract_x
 _atom_site_fract_y
 _atom_site_fract_z
 _atom_site_occupancy
  C  C240  1  0.67374850  0.86558870  0.02020870  1.0
  C  C241  1  0.44045410  0.02020870  0.86558870  1.0
  C  C242  1  0.02020870  0.44045410  0.67374850  1.0
  C  C243  1  0.86558870  0.67374850  0.44045410  1.0
  C  C244  1  0.86558870  0.02020870  0.67374850  1.0
  C  C245  1  0.02020870  0.86558870  0.44045410  1.0
  C  C246  1  0.44045410  0.67374850  0.02020870  1.0
  C  C247  1  0.67374850  0.44045410  0.86558870  1.0
  C  C248  1  0.02020870  0.67374850  0.86558870  1.0
  C  C249  1  0.86558870  0.44045410  0.02020870  1.0
  C  C250  1  0.67374850  0.02020870  0.44045410  1.0
  C  C251  1  0.44045410  0.86558870  0.67374850  1.0
  C  C252  1  0.55954590  0.13441130  0.97979130  1.0
  C  C253  1  0.32625150  0.97979130  0.13441130  1.0
  C  C254  1  0.13441130  0.55954590  0.32625150  1.0
  C  C255  1  0.97979130  0.32625150  0.55954590  1.0
  C  C256  1  0.55954590  0.97979130  0.32625150  1.0
  C  C257  1  0.32625150  0.13441130  0.55954590  1.0
  C  C258  1  0.13441130  0.32625150  0.97979130  1.0
  C  C259  1  0.97979130  0.55954590  0.13441130  1.0
  C  C260  1  0.55954590  0.32625150  0.13441130  1.0
  C  C261  1  0.32625150  0.55954590  0.97979130  1.0
  C  C262  1  0.13441130  0.97979130  0.55954590  1.0
  C  C263  1  0.97979130  0.13441130  0.32625150  1.0
  C  C336  1  0.32625150  0.13441130  0.97979130  1.0
  C  C337  1  0.55954590  0.97979130  0.13441130  1.0
  C  C338  1  0.97979130  0.55954590  0.32625150  1.0
  C  C339  1  0.13441130  0.32625150  0.55954590  1.0
  C  C340  1  0.13441130  0.97979130  0.32625150  1.0
  C  C341  1  0.97979130  0.13441130  0.55954590  1.0
  C  C342  1  0.55954590  0.32625150  0.97979130  1.0
  C  C343  1  0.32625150  0.55954590  0.13441130  1.0
  C  C344  1  0.97979130  0.32625150  0.13441130  1.0
  C  C345  1  0.13441130  0.55954590  0.97979130  1.0
  C  C346  1  0.32625150  0.97979130  0.55954590  1.0
  C  C347  1  0.55954590  0.13441130  0.32625150  1.0
  C  C348  1  0.44045410  0.86558870  0.02020870  1.0
  C  C349  1  0.67374850  0.02020870  0.86558870  1.0
  C  C350  1  0.86558870  0.44045410  0.67374850  1.0
  C  C351  1  0.02020870  0.67374850  0.44045410  1.0
  C  C352  1  0.44045410  0.02020870  0.67374850  1.0
  C  C353  1  0.67374850  0.86558870  0.44045410  1.0
  C  C354  1  0.86558870  0.67374850  0.02020870  1.0
  C  C355  1  0.02020870  0.44045410  0.86558870  1.0
  C  C356  1  0.44045410  0.67374850  0.86558870  1.0
  C  C357  1  0.67374850  0.44045410  0.02020870  1.0
  C  C358  1  0.86558870  0.02020870  0.44045410  1.0
  C  C359  1  0.02020870  0.86558870  0.67374850  1.0
  C  C432  1  0.73357830  0.82229830  0.02009850  1.0
  C  C433  1  0.42402490  0.02009850  0.82229830  1.0
  C  C434  1  0.02009850  0.42402490  0.73357830  1.0
  C  C435  1  0.82229830  0.73357830  0.42402490  1.0
  C  C436  1  0.82229830  0.02009850  0.73357830  1.0
  C  C437  1  0.02009850  0.82229830  0.42402490  1.0
  C  C438  1  0.42402490  0.73357830  0.02009850  1.0
  C  C439  1  0.73357830  0.42402490  0.82229830  1.0
  C  C440  1  0.02009850  0.73357830  0.82229830  1.0
  C  C441  1  0.82229830  0.42402490  0.02009850  1.0
  C  C442  1  0.73357830  0.02009850  0.42402490  1.0
  C  C443  1  0.42402490  0.82229830  0.73357830  1.0
  C  C444  1  0.57597510  0.17770170  0.97990150  1.0
  C  C445  1  0.26642170  0.97990150  0.17770170  1.0
  C  C446  1  0.17770170  0.57597510  0.26642170  1.0
  C  C447  1  0.97990150  0.26642170  0.57597510  1.0
  C  C448  1  0.57597510  0.97990150  0.26642170  1.0
  C  C449  1  0.26642170  0.17770170  0.57597510  1.0
  C  C450  1  0.17770170  0.26642170  0.97990150  1.0
  C  C451  1  0.97990150  0.57597510  0.17770170  1.0
  C  C452  1  0.57597510  0.26642170  0.17770170  1.0
  C  C453  1  0.26642170  0.57597510  0.97990150  1.0
  C  C454  1  0.17770170  0.97990150  0.57597510  1.0
  C  C455  1  0.97990150  0.17770170  0.26642170  1.0
  C  C528  1  0.26642170  0.17770170  0.97990150  1.0
  C  C529  1  0.57597510  0.97990150  0.17770170  1.0
  C  C530  1  0.97990150  0.57597510  0.26642170  1.0
  C  C531  1  0.17770170  0.26642170  0.57597510  1.0
  C  C532  1  0.17770170  0.97990150  0.26642170  1.0
  C  C533  1  0.97990150  0.17770170  0.57597510  1.0
  C  C534  1  0.57597510  0.26642170  0.97990150  1.0
  C  C535  1  0.26642170  0.57597510  0.17770170  1.0
  C  C536  1  0.97990150  0.26642170  0.17770170  1.0
  C  C537  1  0.17770170  0.57597510  0.97990150  1.0
  C  C538  1  0.26642170  0.97990150  0.57597510  1.0
  C  C539  1  0.57597510  0.17770170  0.26642170  1.0
  C  C540  1  0.42402490  0.82229830  0.02009850  1.0
  C  C541  1  0.73357830  0.02009850  0.82229830  1.0
  C  C542  1  0.82229830  0.42402490  0.73357830  1.0
  C  C543  1  0.02009850  0.73357830  0.42402490  1.0
  C  C544  1  0.42402490  0.02009850  0.73357830  1.0
  C  C545  1  0.73357830  0.82229830  0.42402490  1.0
  C  C546  1  0.82229830  0.73357830  0.02009850  1.0
  C  C547  1  0.02009850  0.42402490  0.82229830  1.0
  C  C548  1  0.42402490  0.73357830  0.82229830  1.0
  C  C549  1  0.73357830  0.42402490  0.02009850  1.0
  C  C550  1  0.82229830  0.02009850  0.42402490  1.0
  C  C551  1  0.02009850  0.82229830  0.73357830  1.0
  C  C624  1  0.78118810  0.83157190  0.01258810  1.0
  C  C625  1  0.37465190  0.01258810  0.83157190  1.0
  C  C626  1  0.01258810  0.37465190  0.78118810  1.0
  C  C627  1  0.83157190  0.78118810  0.37465190  1.0
  C  C628  1  0.83157190  0.01258810  0.78118810  1.0
  C  C629  1  0.01258810  0.83157190  0.37465190  1.0
  C  C630  1  0.37465190  0.78118810  0.01258810  1.0
  C  C631  1  0.78118810  0.37465190  0.83157190  1.0
  C  C632  1  0.01258810  0.78118810  0.83157190  1.0
  C  C633  1  0.83157190  0.37465190  0.01258810  1.0
  C  C634  1  0.78118810  0.01258810  0.37465190  1.0
  C  C635  1  0.37465190  0.83157190  0.78118810  1.0
  C  C636  1  0.62534810  0.16842810  0.98741190  1.0
  C  C637  1  0.21881190  0.98741190  0.16842810  1.0
  C  C638  1  0.16842810  0.62534810  0.21881190  1.0
  C  C639  1  0.98741190  0.21881190  0.62534810  1.0
  C  C640  1  0.62534810  0.98741190  0.21881190  1.0
  C  C641  1  0.21881190  0.16842810  0.62534810  1.0
  C  C642  1  0.16842810  0.21881190  0.98741190  1.0
  C  C643  1  0.98741190  0.62534810  0.16842810  1.0
  C  C644  1  0.62534810  0.21881190  0.16842810  1.0
  C  C645  1  0.21881190  0.62534810  0.98741190  1.0
  C  C646  1  0.16842810  0.98741190  0.62534810  1.0
  C  C647  1  0.98741190  0.16842810  0.21881190  1.0
  C  C720  1  0.21881190  0.16842810  0.98741190  1.0
  C  C721  1  0.62534810  0.98741190  0.16842810  1.0
  C  C722  1  0.98741190  0.62534810  0.21881190  1.0
  C  C723  1  0.16842810  0.21881190  0.62534810  1.0
  C  C724  1  0.16842810  0.98741190  0.21881190  1.0
  C  C725  1  0.98741190  0.16842810  0.62534810  1.0
  C  C726  1  0.62534810  0.21881190  0.98741190  1.0
  C  C727  1  0.21881190  0.62534810  0.16842810  1.0
  C  C728  1  0.98741190  0.21881190  0.16842810  1.0
  C  C729  1  0.16842810  0.62534810  0.98741190  1.0
  C  C730  1  0.21881190  0.98741190  0.62534810  1.0
  C  C731  1  0.62534810  0.16842810  0.21881190  1.0
  C  C732  1  0.37465190  0.83157190  0.01258810  1.0
  C  C733  1  0.78118810  0.01258810  0.83157190  1.0
  C  C734  1  0.83157190  0.37465190  0.78118810  1.0
  C  C735  1  0.01258810  0.78118810  0.37465190  1.0
  C  C736  1  0.37465190  0.01258810  0.78118810  1.0
  C  C737  1  0.78118810  0.83157190  0.37465190  1.0
  C  C738  1  0.83157190  0.78118810  0.01258810  1.0
  C  C739  1  0.01258810  0.37465190  0.83157190  1.0
  C  C740  1  0.37465190  0.78118810  0.83157190  1.0
  C  C741  1  0.78118810  0.37465190  0.01258810  1.0
  C  C742  1  0.83157190  0.01258810  0.37465190  1.0
  C  C743  1  0.01258810  0.83157190  0.78118810  1.0
  H  H816  1  0.78010000  0.86790000  0.00790000  1.0
  H  H817  1  0.34410000  0.00790000  0.86790000  1.0
  H  H818  1  0.00790000  0.34410000  0.78010000  1.0
  H  H819  1  0.86790000  0.78010000  0.34410000  1.0
  H  H820  1  0.86790000  0.00790000  0.78010000  1.0
  H  H821  1  0.00790000  0.86790000  0.34410000  1.0
  H  H822  1  0.34410000  0.78010000  0.00790000  1.0
  H  H823  1  0.78010000  0.34410000  0.86790000  1.0
  H  H824  1  0.00790000  0.78010000  0.86790000  1.0
  H  H825  1  0.86790000  0.34410000  0.00790000  1.0
  H  H826  1  0.78010000  0.00790000  0.34410000  1.0
  H  H827  1  0.34410000  0.86790000  0.78010000  1.0
  H  H828  1  0.65590000  0.13210000  0.99210000  1.0
  H  H829  1  0.21990000  0.99210000  0.13210000  1.0
  H  H830  1  0.13210000  0.65590000  0.21990000  1.0
  H  H831  1  0.99210000  0.21990000  0.65590000  1.0
  H  H832  1  0.65590000  0.99210000  0.21990000  1.0
  H  H833  1  0.21990000  0.13210000  0.65590000  1.0
  H  H834  1  0.13210000  0.21990000  0.99210000  1.0
  H  H835  1  0.99210000  0.65590000  0.13210000  1.0
  H  H836  1  0.65590000  0.21990000  0.13210000  1.0
  H  H837  1  0.21990000  0.65590000  0.99210000  1.0
  H  H838  1  0.13210000  0.99210000  0.65590000  1.0
  H  H839  1  0.99210000  0.13210000  0.21990000  1.0
  H  H912  1  0.21990000  0.13210000  0.99210000  1.0
  H  H913  1  0.65590000  0.99210000  0.13210000  1.0
  H  H914  1  0.99210000  0.65590000  0.21990000  1.0
  H  H915  1  0.13210000  0.21990000  0.65590000  1.0
  H  H916  1  0.13210000  0.99210000  0.21990000  1.0
  H  H917  1  0.99210000  0.13210000  0.65590000  1.0
  H  H918  1  0.65590000  0.21990000  0.99210000  1.0
  H  H919  1  0.21990000  0.65590000  0.13210000  1.0
  H  H920  1  0.99210000  0.21990000  0.13210000  1.0
  H  H921  1  0.13210000  0.65590000  0.99210000  1.0
  H  H922  1  0.21990000  0.99210000  0.65590000  1.0
  H  H923  1  0.65590000  0.13210000  0.21990000  1.0
  H  H924  1  0.34410000  0.86790000  0.00790000  1.0
  H  H925  1  0.78010000  0.00790000  0.86790000  1.0
  H  H926  1  0.86790000  0.34410000  0.78010000  1.0
  H  H927  1  0.00790000  0.78010000  0.34410000  1.0
  H  H928  1  0.34410000  0.00790000  0.78010000  1.0
  H  H929  1  0.78010000  0.86790000  0.34410000  1.0
  H  H930  1  0.86790000  0.78010000  0.00790000  1.0
  H  H931  1  0.00790000  0.34410000  0.86790000  1.0
  H  H932  1  0.34410000  0.78010000  0.86790000  1.0
  H  H933  1  0.78010000  0.34410000  0.00790000  1.0
  H  H934  1  0.86790000  0.00790000  0.34410000  1.0
  H  H935  1  0.00790000  0.86790000  0.78010000  1.0
  O  O1008  1  0.66470000  0.91728200  0.01426200  1.0
  O  O1009  1  0.40375600  0.01426200  0.91728200  1.0
  O  O1010  1  0.01426200  0.40375600  0.66470000  1.0
  O  O1011  1  0.91728200  0.66470000  0.40375600  1.0
  O  O1012  1  0.91728200  0.01426200  0.66470000  1.0
  O  O1013  1  0.01426200  0.91728200  0.40375600  1.0
  O  O1014  1  0.40375600  0.66470000  0.01426200  1.0
  O  O1015  1  0.66470000  0.40375600  0.91728200  1.0
  O  O1016  1  0.01426200  0.66470000  0.91728200  1.0
  O  O1017  1  0.91728200  0.40375600  0.01426200  1.0
  O  O1018  1  0.66470000  0.01426200  0.40375600  1.0
  O  O1019  1  0.40375600  0.91728200  0.66470000  1.0
  O  O1020  1  0.59624400  0.08271800  0.98573800  1.0
  O  O1021  1  0.33530000  0.98573800  0.08271800  1.0
  O  O1022  1  0.08271800  0.59624400  0.33530000  1.0
  O  O1023  1  0.98573800  0.33530000  0.59624400  1.0
  O  O1024  1  0.59624400  0.98573800  0.33530000  1.0
  O  O1025  1  0.33530000  0.08271800  0.59624400  1.0
  O  O1026  1  0.08271800  0.33530000  0.98573800  1.0
  O  O1027  1  0.98573800  0.59624400  0.08271800  1.0
  O  O1028  1  0.59624400  0.33530000  0.08271800  1.0
  O  O1029  1  0.33530000  0.59624400  0.98573800  1.0
  O  O1030  1  0.08271800  0.98573800  0.59624400  1.0
  O  O1031  1  0.98573800  0.08271800  0.33530000  1.0
  O  O1104  1  0.33530000  0.08271800  0.98573800  1.0
  O  O1105  1  0.59624400  0.98573800  0.08271800  1.0
  O  O1106  1  0.98573800  0.59624400  0.33530000  1.0
  O  O1107  1  0.08271800  0.33530000  0.59624400  1.0
  O  O1108  1  0.08271800  0.98573800  0.33530000  1.0
  O  O1109  1  0.98573800  0.08271800  0.59624400  1.0
  O  O1110  1  0.59624400  0.33530000  0.98573800  1.0
  O  O1111  1  0.33530000  0.59624400  0.08271800  1.0
  O  O1112  1  0.98573800  0.33530000  0.08271800  1.0
  O  O1113  1  0.08271800  0.59624400  0.98573800  1.0
  O  O1114  1  0.33530000  0.98573800  0.59624400  1.0
  O  O1115  1  0.59624400  0.08271800  0.33530000  1.0
  O  O1116  1  0.40375600  0.91728200  0.01426200  1.0
  O  O1117  1  0.66470000  0.01426200  0.91728200  1.0
  O  O1118  1  0.91728200  0.40375600  0.66470000  1.0
  O  O1119  1  0.01426200  0.66470000  0.40375600  1.0
  O  O1120  1  0.40375600  0.01426200  0.66470000  1.0
  O  O1121  1  0.66470000  0.91728200  0.40375600  1.0
  O  O1122  1  0.91728200  0.66470000  0.01426200  1.0
  O  O1123  1  0.01426200  0.40375600  0.91728200  1.0
  O  O1124  1  0.40375600  0.66470000  0.91728200  1.0
  O  O1125  1  0.66470000  0.40375600  0.01426200  1.0
  O  O1126  1  0.91728200  0.01426200  0.40375600  1.0
  O  O1127  1  0.01426200  0.91728200  0.66470000  1.0
  O  O1200  1  0.58815720  0.95518000  0.95518000  1.0
  O  O1201  1  0.50148280  0.95518000  0.95518000  1.0
  O  O1202  1  0.95518000  0.50148280  0.58815720  1.0
  O  O1203  1  0.95518000  0.58815720  0.50148280  1.0
  O  O1204  1  0.95518000  0.95518000  0.58815720  1.0
  O  O1205  1  0.95518000  0.95518000  0.50148280  1.0
  O  O1206  1  0.50148280  0.58815720  0.95518000  1.0
  O  O1207  1  0.58815720  0.50148280  0.95518000  1.0
  O  O1208  1  0.95518000  0.58815720  0.95518000  1.0
  O  O1209  1  0.95518000  0.50148280  0.95518000  1.0
  O  O1210  1  0.58815720  0.95518000  0.50148280  1.0
  O  O1211  1  0.50148280  0.95518000  0.58815720  1.0
  O  O1212  1  0.49851720  0.04482000  0.04482000  1.0
  O  O1213  1  0.41184280  0.04482000  0.04482000  1.0
  O  O1214  1  0.04482000  0.49851720  0.41184280  1.0
  O  O1215  1  0.04482000  0.41184280  0.49851720  1.0
  O  O1216  1  0.49851720  0.04482000  0.41184280  1.0
  O  O1217  1  0.41184280  0.04482000  0.49851720  1.0
  O  O1218  1  0.04482000  0.41184280  0.04482000  1.0
  O  O1219  1  0.04482000  0.49851720  0.04482000  1.0
  O  O1220  1  0.49851720  0.41184280  0.04482000  1.0
  O  O1221  1  0.41184280  0.49851720  0.04482000  1.0
  O  O1222  1  0.04482000  0.04482000  0.49851720  1.0
  O  O1223  1  0.04482000  0.04482000  0.41184280  1.0
  O  O1296  1  0.63781890  0.84721870  0.02465870  1.0
  O  O1297  1  0.49030370  0.02465870  0.84721870  1.0
  O  O1298  1  0.02465870  0.49030370  0.63781890  1.0
  O  O1299  1  0.84721870  0.63781890  0.49030370  1.0
  O  O1300  1  0.84721870  0.02465870  0.63781890  1.0
  O  O1301  1  0.02465870  0.84721870  0.49030370  1.0
  O  O1302  1  0.49030370  0.63781890  0.02465870  1.0
  O  O1303  1  0.63781890  0.49030370  0.84721870  1.0
  O  O1304  1  0.02465870  0.63781890  0.84721870  1.0
  O  O1305  1  0.84721870  0.49030370  0.02465870  1.0
  O  O1306  1  0.63781890  0.02465870  0.49030370  1.0
  O  O1307  1  0.49030370  0.84721870  0.63781890  1.0
  O  O1308  1  0.50969630  0.15278130  0.97534130  1.0
  O  O1309  1  0.36218110  0.97534130  0.15278130  1.0
  O  O1310  1  0.15278130  0.50969630  0.36218110  1.0
  O  O1311  1  0.97534130  0.36218110  0.50969630  1.0
  O  O1312  1  0.50969630  0.97534130  0.36218110  1.0
  O  O1313  1  0.36218110  0.15278130  0.50969630  1.0
  O  O1314  1  0.15278130  0.36218110  0.97534130  1.0
  O  O1315  1  0.97534130  0.50969630  0.15278130  1.0
  O  O1316  1  0.50969630  0.36218110  0.15278130  1.0
  O  O1317  1  0.36218110  0.50969630  0.97534130  1.0
  O  O1318  1  0.15278130  0.97534130  0.50969630  1.0
  O  O1319  1  0.97534130  0.15278130  0.36218110  1.0
  O  O1392  1  0.36218110  0.15278130  0.97534130  1.0
  O  O1393  1  0.50969630  0.97534130  0.15278130  1.0
  O  O1394  1  0.97534130  0.50969630  0.36218110  1.0
  O  O1395  1  0.15278130  0.36218110  0.50969630  1.0
  O  O1396  1  0.15278130  0.97534130  0.36218110  1.0
  O  O1397  1  0.97534130  0.15278130  0.50969630  1.0
  O  O1398  1  0.50969630  0.36218110  0.97534130  1.0
  O  O1399  1  0.36218110  0.50969630  0.15278130  1.0
  O  O1400  1  0.97534130  0.36218110  0.15278130  1.0
  O  O1401  1  0.15278130  0.50969630  0.97534130  1.0
  O  O1402  1  0.36218110  0.97534130  0.50969630  1.0
  O  O1403  1  0.50969630  0.15278130  0.36218110  1.0
  O  O1404  1  0.49030370  0.84721870  0.02465870  1.0
  O  O1405  1  0.63781890  0.02465870  0.84721870  1.0
  O  O1406  1  0.84721870  0.49030370  0.63781890  1.0
  O  O1407  1  0.02465870  0.63781890  0.49030370  1.0
  O  O1408  1  0.49030370  0.02465870  0.63781890  1.0
  O  O1409  1  0.63781890  0.84721870  0.49030370  1.0
  O  O1410  1  0.84721870  0.63781890  0.02465870  1.0
  O  O1411  1  0.02465870  0.49030370  0.84721870  1.0
  O  O1412  1  0.49030370  0.63781890  0.84721870  1.0
  O  O1413  1  0.63781890  0.49030370  0.02465870  1.0
  O  O1414  1  0.84721870  0.02465870  0.49030370  1.0
  O  O1415  1  0.02465870  0.84721870  0.63781890  1.0
  O  O1680  1  0.45651850  0.06375850  0.93624150  1.0
  O  O1681  1  0.54348150  0.93624150  0.06375850  1.0
  O  O1682  1  0.93624150  0.54348150  0.45651850  1.0
  O  O1683  1  0.06375850  0.45651850  0.54348150  1.0
  O  O1684  1  0.06375850  0.93624150  0.45651850  1.0
  O  O1685  1  0.93624150  0.06375850  0.54348150  1.0
  O  O1686  1  0.54348150  0.45651850  0.93624150  1.0
  O  O1687  1  0.45651850  0.54348150  0.06375850  1.0
  O  O1688  1  0.93624150  0.45651850  0.06375850  1.0
  O  O1689  1  0.06375850  0.54348150  0.93624150  1.0
  O  O1690  1  0.45651850  0.93624150  0.54348150  1.0
  O  O1691  1  0.54348150  0.06375850  0.45651850  1.0
  O  O1692  1  0.45651850  0.93624150  0.06375850  1.0
  O  O1693  1  0.54348150  0.06375850  0.93624150  1.0
  O  O1694  1  0.93624150  0.45651850  0.54348150  1.0
  O  O1695  1  0.06375850  0.54348150  0.45651850  1.0
  O  O1696  1  0.45651850  0.06375850  0.54348150  1.0
  O  O1697  1  0.54348150  0.93624150  0.45651850  1.0
  O  O1698  1  0.93624150  0.54348150  0.06375850  1.0
  O  O1699  1  0.06375850  0.45651850  0.93624150  1.0
  O  O1700  1  0.45651850  0.54348150  0.93624150  1.0
  O  O1701  1  0.54348150  0.45651850  0.06375850  1.0
  O  O1702  1  0.93624150  0.06375850  0.45651850  1.0
  O  O1703  1  0.06375850  0.93624150  0.54348150  1.0
  S  S144  1  0.75121400  0.75121400  0.02613600  1.0
  S  S145  1  0.47143600  0.02613600  0.75121400  1.0
  S  S146  1  0.02613600  0.47143600  0.75121400  1.0
  S  S147  1  0.75121400  0.75121400  0.47143600  1.0
  S  S148  1  0.75121400  0.02613600  0.75121400  1.0
  S  S149  1  0.02613600  0.75121400  0.47143600  1.0
  S  S150  1  0.47143600  0.75121400  0.02613600  1.0
  S  S151  1  0.75121400  0.47143600  0.75121400  1.0
  S  S152  1  0.02613600  0.75121400  0.75121400  1.0
  S  S153  1  0.75121400  0.47143600  0.02613600  1.0
  S  S154  1  0.75121400  0.02613600  0.47143600  1.0
  S  S155  1  0.47143600  0.75121400  0.75121400  1.0
  S  S156  1  0.52856400  0.24878600  0.97386400  1.0
  S  S157  1  0.24878600  0.97386400  0.24878600  1.0
  S  S158  1  0.24878600  0.52856400  0.24878600  1.0
  S  S159  1  0.97386400  0.24878600  0.52856400  1.0
  S  S160  1  0.52856400  0.97386400  0.24878600  1.0
  S  S161  1  0.24878600  0.24878600  0.52856400  1.0
  S  S162  1  0.24878600  0.24878600  0.97386400  1.0
  S  S163  1  0.97386400  0.52856400  0.24878600  1.0
  S  S164  1  0.52856400  0.24878600  0.24878600  1.0
  S  S165  1  0.24878600  0.52856400  0.97386400  1.0
  S  S166  1  0.24878600  0.97386400  0.52856400  1.0
  S  S167  1  0.97386400  0.24878600  0.24878600  1.0
  Zr  Zr0  1  0.54524794  0.01847586  0.89102786  1.0
  Zr  Zr1  1  0.54524834  0.89102786  0.01847586  1.0
  Zr  Zr2  1  0.89102786  0.54524834  0.54524794  1.0
  Zr  Zr3  1  0.01847586  0.54524794  0.54524834  1.0
  Zr  Zr4  1  0.01847586  0.89102786  0.54524794  1.0
  Zr  Zr5  1  0.89102786  0.01847586  0.54524834  1.0
  Zr  Zr6  1  0.54524834  0.54524794  0.89102786  1.0
  Zr  Zr7  1  0.54524794  0.54524834  0.01847586  1.0
  Zr  Zr8  1  0.89102786  0.54524794  0.01847586  1.0
  Zr  Zr9  1  0.01847586  0.54524834  0.89102786  1.0
  Zr  Zr10  1  0.54524794  0.89102786  0.54524834  1.0
  Zr  Zr11  1  0.54524834  0.01847586  0.54524794  1.0
  Zr  Zr12  1  0.45475166  0.98152414  0.10897214  1.0
  Zr  Zr13  1  0.45475206  0.10897214  0.98152414  1.0
  Zr  Zr14  1  0.98152414  0.45475166  0.45475206  1.0
  Zr  Zr15  1  0.10897214  0.45475206  0.45475166  1.0
  Zr  Zr16  1  0.45475166  0.10897214  0.45475206  1.0
  Zr  Zr17  1  0.45475206  0.98152414  0.45475166  1.0
  Zr  Zr18  1  0.98152414  0.45475206  0.10897214  1.0
  Zr  Zr19  1  0.10897214  0.45475166  0.98152414  1.0
  Zr  Zr20  1  0.45475166  0.45475206  0.98152414  1.0
  Zr  Zr21  1  0.45475206  0.45475166  0.10897214  1.0
  Zr  Zr22  1  0.98152414  0.10897214  0.45475166  1.0
  Zr  Zr23  1  0.10897214  0.98152414  0.45475206  1.0
  Zr  Zr96  1  0.58911376  1.00000000  0.00000000  1.0
  Zr  Zr97  1  0.41088624  0.00000000  0.00000000  1.0
  Zr  Zr98  1  0.00000000  0.41088624  0.58911376  1.0
  Zr  Zr99  1  0.00000000  0.58911376  0.41088624  1.0
  Zr  Zr100  1  1.00000000  0.00000000  0.58911376  1.0
  Zr  Zr101  1  1.00000000  0.00000000  0.41088624  1.0
  Zr  Zr102  1  0.41088624  0.58911376  0.00000000  1.0
  Zr  Zr103  1  0.58911376  0.41088624  1.00000000  1.0
  Zr  Zr104  1  0.00000000  0.58911376  0.00000000  1.0
  Zr  Zr105  1  0.00000000  0.41088624  0.00000000  1.0
  Zr  Zr106  1  0.58911376  1.00000000  0.41088624  1.0
  Zr  Zr107  1  0.41088624  0.00000000  0.58911376  1.0
