# generated using pymatgen
data_NpP2H2CO8
_symmetry_space_group_name_H-M   'P 1'
_cell_length_a   8.84181500
_cell_length_b   9.63811600
_cell_length_c   8.66271500
_cell_angle_alpha   90.00000000
_cell_angle_beta   90.00000000
_cell_angle_gamma   90.00000000
_symmetry_Int_Tables_number   1
_chemical_formula_structural   NpP2H2CO8
_chemical_formula_sum   'Np4 P8 H8 C4 O32'
_cell_volume   738.22304651
_cell_formula_units_Z   4
loop_
 _symmetry_equiv_pos_site_id
 _symmetry_equiv_pos_as_xyz
  1  'x, y, z'
loop_
 _atom_site_type_symbol
 _atom_site_label
 _atom_site_symmetry_multiplicity
 _atom_site_fract_x
 _atom_site_fract_y
 _atom_site_fract_z
 _atom_site_occupancy
  Np  Np0  1  0.22780014  0.44110511  0.27290400  1
  Np  Np1  1  0.77219986  0.55889489  0.77290400  1
  Np  Np2  1  0.72780014  0.05889489  0.27290400  1
  Np  Np3  1  0.27219986  0.94110511  0.77290400  1
  P  P4  1  0.11522120  0.09941100  0.41755120  1
  P  P5  1  0.88477880  0.90058900  0.91755120  1
  P  P6  1  0.61522120  0.40058900  0.41755120  1
  P  P7  1  0.38477880  0.59941100  0.91755120  1
  P  P8  1  0.33531120  0.10627110  0.14772120  1
  P  P9  1  0.66468880  0.89372890  0.64772120  1
  P  P10  1  0.83531120  0.39372890  0.14772120  1
  P  P11  1  0.16468880  0.60627110  0.64772120  1
  O  O12  1  0.18404000  0.24323000  0.43204000  1
  O  O13  1  0.81596000  0.75677000  0.93204000  1
  O  O14  1  0.68404000  0.25677000  0.43204000  1
  O  O15  1  0.31596000  0.74323000  0.93204000  1
  O  O16  1  0.26364000  0.24844000  0.11624000  1
  O  O17  1  0.73636000  0.75156000  0.61624000  1
  O  O18  1  0.76364000  0.25156000  0.11624000  1
  O  O19  1  0.23636000  0.74844000  0.61624000  1
  O  O20  1  0.94577000  0.10633000  0.38774000  1
  O  O21  1  0.05423000  0.89367000  0.88774000  1
  O  O22  1  0.44577000  0.39367000  0.38774000  1
  O  O23  1  0.55423000  0.60633000  0.88774000  1
  O  O24  1  0.48123000  0.11283000  0.23733000  1
  O  O25  1  0.51877000  0.88717000  0.73733000  1
  O  O26  1  0.98123000  0.38717000  0.23733000  1
  O  O27  1  0.01877000  0.61283000  0.73733000  1
  O  O28  1  0.36254000  0.02953000  0.00000000  1
  O  O29  1  0.63746000  0.97047000  0.49586000  1
  O  O30  1  0.86254000  0.47047000  0.00000000  1
  O  O31  1  0.13746000  0.52953000  0.49586000  1
  O  O32  1  0.14534000  0.01433000  0.56264000  1
  O  O33  1  0.85466000  0.98567000  0.06264000  1
  O  O34  1  0.64534000  0.48567000  0.56264000  1
  O  O35  1  0.35466000  0.51433000  0.06264000  1
  C  C40  1  0.19825000  0.00854000  0.25528000  1
  C  C41  1  0.80175000  0.99146000  0.75528000  1
  C  C42  1  0.69825000  0.49146000  0.25528000  1
  C  C43  1  0.30175000  0.50854000  0.75528000  1
  H  H44  1  0.24710000  0.92280000  0.29380000  1
  H  H45  1  0.75290000  0.07720000  0.79380000  1
  H  H46  1  0.74710000  0.57720000  0.29380000  1
  H  H47  1  0.25290000  0.42280000  0.79380000  1
  H  H48  1  0.11600000  0.98020000  0.18420000  1
  H  H49  1  0.88400000  0.01980000  0.68420000  1
  H  H50  1  0.61600000  0.51980000  0.18420000  1
  H  H51  1  0.38400000  0.48020000  0.68420000  1
