# generated using pymatgen
data_Tb2H17C11NO19
_symmetry_space_group_name_H-M   'P 1'
_cell_length_a   8.12133000
_cell_length_b   10.53793000
_cell_length_c   13.09214000
_cell_angle_alpha   94.13581800
_cell_angle_beta   102.98571700
_cell_angle_gamma   108.19151500
_symmetry_Int_Tables_number   1
_chemical_formula_structural   Tb2H17C11NO19
_cell_volume   1024.90437219
_cell_formula_units_Z   2
loop_
 _symmetry_equiv_pos_site_id
 _symmetry_equiv_pos_as_xyz
  1  'x, y, z'
loop_
 _atom_site_type_symbol
 _atom_site_label
 _atom_site_symmetry_multiplicity
 _atom_site_fract_x
 _atom_site_fract_y
 _atom_site_fract_z
 _atom_site_occupancy
  Tb  Tb0  1  0.82945900  0.52889080  0.18859060  1
  Tb  Tb1  1  0.17054100  0.47110920  0.81140940  1
  Tb  Tb2  1  0.27761890  0.17875770  0.39486260  1
  Tb  Tb3  1  0.72238110  0.82124230  0.60513740  1
  O  O4  1  0.51937160  0.08834130  0.39263100  1
  O  O5  1  0.48062840  0.91165870  0.60736900  1
  O  O6  1  0.33384160  0.04739130  0.53856100  1
  O  O7  1  0.66615840  0.95260870  0.46143900  1
  O  O8  1  0.01524170  0.18926130  0.27154110  1
  O  O9  1  0.98475830  0.81073870  0.72845890  1
  O  O10  1  0.86998000  0.31717140  0.18879120  1
  O  O11  1  0.13002000  0.68282860  0.81120880  1
  O  O12  1  0.23835170  0.40755130  0.40909100  1
  O  O13  1  0.76164830  0.59244870  0.59090900  1
  O  O14  1  0.06974170  0.52864120  0.33783100  1
  O  O15  1  0.93025830  0.47135880  0.66216900  1
  O  O16  1  0.10424170  0.56936160  0.13184100  1
  O  O17  1  0.89575830  0.43063840  0.86815900  1
  O  O18  1  0.22163170  0.52707150  0.00000000  1
  O  O19  1  0.77836830  0.47292850  0.00049100  1
  O  O20  1  0.96308810  0.75603130  0.22825120  1
  O  O21  1  0.03691190  0.24396870  0.77174880  1
  O  O22  1  0.07811180  0.94877130  0.33998100  1
  O  O23  1  0.92188820  0.05122870  0.66001900  1
  O  O24  1  0.45318170  0.31891130  0.29341100  1
  O  O25  1  0.54681830  0.68108870  0.70658900  1
  O  O26  1  0.54571180  0.35855140  0.14648110  1
  O  O27  1  0.45428820  0.64144860  0.85351890  1
  N  N52  1  0.24947190  0.07367150  0.20929120  1
  N  N53  1  0.75052810  0.92632850  0.79070880  1
  C  C54  1  0.55462000  0.01177180  0.45813140  1
  C  C55  1  0.44538000  0.98822820  0.54186860  1
  C  C56  1  0.98758000  0.29837190  0.26098150  1
  C  C57  1  0.01242000  0.70162810  0.73901850  1
  C  C58  1  0.10982000  0.42322180  0.34402130  1
  C  C59  1  0.89018000  0.57677820  0.65597870  1
  C  C60  1  0.09462000  0.52821190  0.03821140  1
  C  C61  1  0.90538000  0.47178810  0.96178860  1
  C  C62  1  0.05542000  0.87805180  0.25331140  1
  C  C63  1  0.94458000  0.12194820  0.74668860  1
  C  C64  1  0.14652000  0.94600180  0.17321140  1
  C  C65  1  0.85348000  0.05399820  0.82678860  1
  C  C66  1  0.12703000  0.88462000  0.07212160  1
  C  C67  1  0.87297000  0.11538000  0.92787840  1
  H  H68  1  0.05000000  0.79620000  0.04790000  1
  H  H69  1  0.95000000  0.20380000  0.95210000  1
  C  C70  1  0.22324000  0.95622000  0.00727170  1
  C  C71  1  0.77676000  0.04378000  0.99272830  1
  H  H72  1  0.21510000  0.91590000  0.93990000  1
  H  H73  1  0.78490000  0.08410000  0.06010000  1
  C  C74  1  0.33113000  0.08842000  0.04524160  1
  C  C75  1  0.66887000  0.91158000  0.95475840  1
  H  H76  1  0.39690000  0.13950000  0.00360000  1
  H  H77  1  0.60310000  0.86050000  0.00000000  1
  C  C78  1  0.34022000  0.14429190  0.14649140  1
  C  C79  1  0.65978000  0.85570810  0.85350860  1
  C  C80  1  0.45572000  0.28467180  0.19853150  1
  C  C81  1  0.54428000  0.71532820  0.80146850  1
