# generated using pymatgen
data_ZnH26C22N4O7
_symmetry_space_group_name_H-M   'P 1'
_cell_length_a   7.95831300
_cell_length_b   15.73601600
_cell_length_c   20.21220000
_cell_angle_alpha   90.00000000
_cell_angle_beta   94.99912000
_cell_angle_gamma   90.00000000
_symmetry_Int_Tables_number   1
_chemical_formula_structural   ZnH26C22N4O7
_chemical_formula_sum   'Zn4 H104 C88 N16 O28'
_cell_volume   2521.58841714
_cell_formula_units_Z   4
loop_
 _symmetry_equiv_pos_site_id
 _symmetry_equiv_pos_as_xyz
  1  'x, y, z'
loop_
 _atom_site_type_symbol
 _atom_site_label
 _atom_site_symmetry_multiplicity
 _atom_site_fract_x
 _atom_site_fract_y
 _atom_site_fract_z
 _atom_site_occupancy
  Zn  Zn0  1  0.13860900  0.32743400  0.26757300  1
  Zn  Zn1  1  0.36139100  0.82743400  0.23242700  1
  Zn  Zn2  1  0.86139100  0.67256600  0.73242700  1
  Zn  Zn3  1  0.63860900  0.17256600  0.76757300  1
  C  C4  1  0.20458000  0.28784000  0.41373000  1
  C  C5  1  0.29542000  0.78784000  0.08627000  1
  C  C6  1  0.79542000  0.71216000  0.58627000  1
  C  C7  1  0.70458000  0.21216000  0.91373000  1
  H  H8  1  0.11050000  0.31820000  0.42460000  1
  H  H9  1  0.38950000  0.81820000  0.07540000  1
  H  H10  1  0.88950000  0.68180000  0.57540000  1
  H  H11  1  0.61050000  0.18180000  0.92460000  1
  C  C12  1  0.31419000  0.24874000  0.45753000  1
  C  C13  1  0.18581000  0.74874000  0.04247000  1
  C  C14  1  0.68581000  0.75126000  0.54247000  1
  C  C15  1  0.81419000  0.25126000  0.95753000  1
  H  H16  1  0.31030000  0.24620000  0.50330000  1
  H  H17  1  0.18970000  0.74620000  0.00000000  1
  H  H18  1  0.68970000  0.75380000  0.49670000  1
  H  H19  1  0.81030000  0.25380000  0.00330000  1
  C  C20  1  0.38838000  0.23134000  0.35783000  1
  C  C21  1  0.11162000  0.73134000  0.14217000  1
  C  C22  1  0.61162000  0.76866000  0.64217000  1
  C  C23  1  0.88838000  0.26866000  0.85783000  1
  H  H24  1  0.44840000  0.21390000  0.32280000  1
  H  H25  1  0.05160000  0.71390000  0.17720000  1
  H  H26  1  0.55160000  0.78610000  0.67720000  1
  H  H27  1  0.94840000  0.28610000  0.82280000  1
  C  C28  1  0.58069000  0.16504000  0.44694000  1
  C  C29  1  0.91931000  0.66504000  0.05306000  1
  C  C30  1  0.41931000  0.83496000  0.55306000  1
  C  C31  1  0.08069000  0.33496000  0.94694000  1
  H  H32  1  0.65340000  0.15680000  0.41140000  1
  H  H33  1  0.84660000  0.65680000  0.08860000  1
  H  H34  1  0.34660000  0.84320000  0.58860000  1
  H  H35  1  0.15340000  0.34320000  0.91140000  1
  H  H36  1  0.64280000  0.19770000  0.48160000  1
  H  H37  1  0.85720000  0.69770000  0.01840000  1
  H  H38  1  0.35720000  0.80230000  0.51840000  1
  H  H39  1  0.14280000  0.30230000  0.98160000  1
  C  C40  1  0.53687000  0.07934000  0.47453000  1
  C  C41  1  0.96313000  0.57934000  0.02547000  1
  C  C42  1  0.46313000  0.92066000  0.52547000  1
  C  C43  1  0.03687000  0.42066000  0.97453000  1
  C  C44  1  0.47038000  0.01595000  0.43423000  1
  C  C45  1  0.02962000  0.51595000  0.06577000  1
  C  C46  1  0.52962000  0.98405000  0.56577000  1
  C  C47  1  0.97038000  0.48405000  0.93423000  1
  H  H48  1  0.44970000  0.02610000  0.38890000  1
  H  H49  1  0.05030000  0.52610000  0.11110000  1
  H  H50  1  0.55030000  0.97390000  0.61110000  1
  H  H51  1  0.94970000  0.47390000  0.88890000  1
  C  C52  1  0.56708000  0.06244000  0.54113000  1
  C  C53  1  0.93292000  0.56244000  0.95887000  1
  C  C54  1  0.43292000  0.93756000  0.45887000  1
  C  C55  1  0.06708000  0.43756000  0.04113000  1
  H  H56  1  0.61300000  0.10430000  0.56970000  1
  H  H57  1  0.88700000  0.60430000  0.93030000  1
  H  H58  1  0.38700000  0.89570000  0.43030000  1
  H  H59  1  0.11300000  0.39570000  0.06970000  1
  C  C60  1  0.27759000  0.50184000  0.23733000  1
  C  C61  1  0.22241000  0.00184000  0.26267000  1
  C  C62  1  0.72241000  0.49816000  0.76267000  1
  C  C63  1  0.77759000  0.00000000  0.73733000  1
  H  H64  1  0.19900000  0.53100000  0.26000000  1
  H  H65  1  0.30100000  0.03100000  0.24000000  1
  H  H66  1  0.80100000  0.46900000  0.74000000  1
  H  H67  1  0.69900000  0.96900000  0.76000000  1
  C  C68  1  0.40188000  0.53774000  0.20643000  1
  C  C69  1  0.09812000  0.03774000  0.29357000  1
  C  C70  1  0.59812000  0.46226000  0.79357000  1
  C  C71  1  0.90188000  0.96226000  0.70643000  1
  H  H72  1  0.42520000  0.59550000  0.20360000  1
  H  H73  1  0.07480000  0.09550000  0.29640000  1
  H  H74  1  0.57480000  0.40450000  0.79640000  1
  H  H75  1  0.92520000  0.90450000  0.70360000  1
  C  C76  1  0.41238000  0.40154000  0.19463000  1
  C  C77  1  0.08762000  0.90154000  0.30537000  1
  C  C78  1  0.58762000  0.59846000  0.80537000  1
  C  C79  1  0.91238000  0.09846000  0.69463000  1
  H  H80  1  0.44630000  0.34800000  0.18160000  1
  H  H81  1  0.05370000  0.84800000  0.31840000  1
  H  H82  1  0.55370000  0.65200000  0.81840000  1
  H  H83  1  0.94630000  0.15200000  0.68160000  1
  C  C84  1  0.62837000  0.48085000  0.13733000  1
  C  C85  1  0.87163000  0.98085000  0.36267000  1
  C  C86  1  0.37163000  0.51915000  0.86267000  1
  C  C87  1  0.12837000  0.01915000  0.63733000  1
  H  H88  1  0.69710000  0.52960000  0.15120000  1
  H  H89  1  0.80290000  0.02960000  0.34880000  1
  H  H90  1  0.30290000  0.47040000  0.84880000  1
  H  H91  1  0.19710000  0.97040000  0.65120000  1
  H  H92  1  0.69850000  0.43050000  0.14240000  1
  H  H93  1  0.80150000  0.93050000  0.35760000  1
  H  H94  1  0.30150000  0.56950000  0.85760000  1
  H  H95  1  0.19850000  0.06950000  0.64240000  1
  C  C96  1  0.56317000  0.49084000  0.06553000  1
  C  C97  1  0.93683000  0.99084000  0.43447000  1
  C  C98  1  0.43683000  0.50916000  0.93447000  1
  C  C99  1  0.06317000  0.00916000  0.56553000  1
  C  C100  1  0.55898000  0.42285000  0.02413000  1
  C  C101  1  0.94102000  0.92285000  0.47587000  1
  C  C102  1  0.44102000  0.57715000  0.97587000  1
  C  C103  1  0.05898000  0.07715000  0.52413000  1
  H  H104  1  0.59950000  0.37050000  0.03980000  1
  H  H105  1  0.90050000  0.87050000  0.46020000  1
  H  H106  1  0.40050000  0.62950000  0.96020000  1
  H  H107  1  0.09950000  0.12950000  0.53980000  1
  C  C108  1  0.50578000  0.56914000  0.04143000  1
  C  C109  1  0.99422000  0.06914000  0.45857000  1
  C  C110  1  0.49422000  0.43086000  0.95857000  1
  C  C111  1  0.00578000  0.93086000  0.54143000  1
  H  H112  1  0.51060000  0.61620000  0.06930000  1
  H  H113  1  0.98940000  0.11620000  0.43070000  1
  H  H114  1  0.48940000  0.38380000  0.93070000  1
  H  H115  1  0.01060000  0.88380000  0.56930000  1
  C  C116  1  0.87638300  0.40217000  0.31415000  1
  C  C117  1  0.62361700  0.90217000  0.18585000  1
  C  C118  1  0.12361700  0.59783000  0.68585000  1
  C  C119  1  0.37638300  0.09783000  0.81415000  1
  C  C120  1  0.70439000  0.42847000  0.33784000  1
  C  C121  1  0.79561000  0.92847000  0.16216000  1
  C  C122  1  0.29561000  0.57153000  0.66216000  1
  C  C123  1  0.20439000  0.07153000  0.83784000  1
  H  H124  1  0.63290000  0.37840000  0.33640000  1
  H  H125  1  0.86710000  0.87840000  0.16360000  1
  H  H126  1  0.36710000  0.62160000  0.66360000  1
  H  H127  1  0.13290000  0.12160000  0.83640000  1
  H  H128  1  0.65240000  0.46860000  0.30600000  1
  H  H129  1  0.84760000  0.96860000  0.19400000  1
  H  H130  1  0.34760000  0.53140000  0.69400000  1
  H  H131  1  0.15240000  0.03140000  0.80600000  1
  C  C132  1  0.70408300  0.46488000  0.40185000  1
  C  C133  1  0.79591700  0.96488000  0.09815000  1
  C  C134  1  0.29591700  0.53512000  0.59815000  1
  C  C135  1  0.20408300  0.03512000  0.90185000  1
  H  H136  1  0.77870000  0.51360000  0.40400000  1
  H  H137  1  0.72130000  0.01360000  0.09600000  1
  H  H138  1  0.22130000  0.48640000  0.59600000  1
  H  H139  1  0.27870000  0.98640000  0.90400000  1
  H  H140  1  0.59120000  0.48540000  0.40710000  1
  H  H141  1  0.90880000  0.98540000  0.09290000  1
  H  H142  1  0.40880000  0.51460000  0.59290000  1
  H  H143  1  0.09120000  0.01460000  0.90710000  1
  C  C144  1  0.75558300  0.40821000  0.45815000  1
  C  C145  1  0.74441700  0.90821000  0.04185000  1
  C  C146  1  0.24441700  0.59179000  0.54185000  1
  C  C147  1  0.25558300  0.09179000  0.95815000  1
  H  H148  1  0.87760000  0.40420000  0.46140000  1
  H  H149  1  0.62240000  0.90420000  0.03860000  1
  H  H150  1  0.12240000  0.59580000  0.53860000  1
  H  H151  1  0.37760000  0.09580000  0.96140000  1
  H  H152  1  0.71190000  0.35200000  0.44700000  1
  H  H153  1  0.78810000  0.85200000  0.05300000  1
  H  H154  1  0.28810000  0.64800000  0.55300000  1
  H  H155  1  0.21190000  0.14800000  0.94700000  1
  C  C156  1  0.70980000  0.42791000  0.51745000  1
  C  C157  1  0.79020000  0.92791000  0.98255000  1
  C  C158  1  0.29020000  0.57209000  0.48255000  1
  C  C159  1  0.20980000  0.07209000  0.01745000  1
  H  H160  1  0.75160000  0.48480000  0.52780000  1
  H  H161  1  0.74840000  0.98480000  0.97220000  1
  H  H162  1  0.24840000  0.51520000  0.47220000  1
  H  H163  1  0.25160000  0.01520000  0.02780000  1
  H  H164  1  0.58800000  0.43080000  0.51400000  1
  H  H165  1  0.91200000  0.93080000  0.98600000  1
  H  H166  1  0.41200000  0.56920000  0.48600000  1
  H  H167  1  0.08800000  0.06920000  0.01400000  1
  C  C168  1  0.76328100  0.37311100  0.57515000  1
  C  C169  1  0.73671900  0.87311100  0.92485000  1
  C  C170  1  0.23671900  0.62688900  0.42485000  1
  C  C171  1  0.26328100  0.12688900  0.07515000  1
  H  H172  1  0.85360000  0.40200000  0.60150000  1
  H  H173  1  0.64640000  0.90200000  0.89850000  1
  H  H174  1  0.14640000  0.59800000  0.39850000  1
  H  H175  1  0.35360000  0.09800000  0.10150000  1
  H  H176  1  0.81030000  0.32130000  0.55840000  1
  H  H177  1  0.68970000  0.82130000  0.94160000  1
  H  H178  1  0.18970000  0.67870000  0.44160000  1
  H  H179  1  0.31030000  0.17870000  0.05840000  1
  C  C180  1  0.64478200  0.35097000  0.61616000  1
  C  C181  1  0.85521800  0.85097000  0.88384000  1
  C  C182  1  0.35521800  0.64903000  0.38384000  1
  C  C183  1  0.14478200  0.14903000  0.11616000  1
  H  H184  1  0.60050000  0.40310000  0.63330000  1
  H  H185  1  0.89950000  0.90310000  0.86670000  1
  H  H186  1  0.39950000  0.59690000  0.36670000  1
  H  H187  1  0.10050000  0.09690000  0.13330000  1
  H  H188  1  0.55300000  0.32430000  0.58890000  1
  H  H189  1  0.94700000  0.82430000  0.91110000  1
  H  H190  1  0.44700000  0.67570000  0.41110000  1
  H  H191  1  0.05300000  0.17570000  0.08890000  1
  C  C192  1  0.68780000  0.29426000  0.67365000  1
  C  C193  1  0.81220000  0.79426000  0.82635000  1
  C  C194  1  0.31220000  0.70574000  0.32635000  1
  C  C195  1  0.18780000  0.20574000  0.17365000  1
  O  O196  1  0.90148600  0.34148000  0.29305000  1
  O  O197  1  0.59851400  0.84148000  0.20695000  1
  O  O198  1  0.09851400  0.65852000  0.70695000  1
  O  O199  1  0.40148600  0.15852000  0.79305000  1
  O  O200  1  0.98378700  0.45608000  0.32786000  1
  O  O201  1  0.51621300  0.95608000  0.17214000  1
  O  O202  1  0.01621300  0.54392000  0.67214000  1
  O  O203  1  0.48378700  0.04392000  0.82786000  1
  O  O204  1  0.57229000  0.24854000  0.69313000  1
  O  O205  1  0.92771000  0.74854000  0.80687000  1
  O  O206  1  0.42771000  0.75146000  0.30687000  1
  O  O207  1  0.07229000  0.25146000  0.19313000  1
  O  O208  1  0.82798900  0.29204000  0.70164000  1
  O  O209  1  0.67201100  0.79204000  0.79836000  1
  O  O210  1  0.17201100  0.70796000  0.29836000  1
  O  O211  1  0.32798900  0.20796000  0.20164000  1
  N  N212  1  0.25036000  0.27663000  0.35102000  1
  N  N213  1  0.24964000  0.77663000  0.14898000  1
  N  N214  1  0.74964000  0.72337000  0.64898000  1
  N  N215  1  0.75036000  0.22337000  0.85102000  1
  N  N216  1  0.43176000  0.21343000  0.42143000  1
  N  N217  1  0.06824000  0.71343000  0.07857000  1
  N  N218  1  0.56824000  0.78657000  0.57857000  1
  N  N219  1  0.93176000  0.28657000  0.92143000  1
  N  N220  1  0.28396000  0.41533000  0.23022000  1
  N  N221  1  0.21604000  0.91533000  0.26978000  1
  N  N222  1  0.71604000  0.58467000  0.76978000  1
  N  N223  1  0.78396000  0.08467000  0.73022000  1
  N  N224  1  0.48666000  0.47333000  0.17992000  1
  N  N225  1  0.01334000  0.97333000  0.32008000  1
  N  N226  1  0.51334000  0.52667000  0.82008000  1
  N  N227  1  0.98666000  0.02667000  0.67992000  1
