# generated using pymatgen
data_H6PdC8(N2O3)2
_symmetry_space_group_name_H-M   'P 1'
_cell_length_a   16.27921200
_cell_length_b   16.27921200
_cell_length_c   16.27921200
_cell_angle_alpha   90.00000000
_cell_angle_beta   90.00000000
_cell_angle_gamma   90.00000000
_symmetry_Int_Tables_number   1
_chemical_formula_structural   H6PdC8(N2O3)2
_chemical_formula_sum   'Pd12 H72 C96 N48 O72'
_cell_volume   4314.19863155
_cell_formula_units_Z   12
loop_
 _symmetry_equiv_pos_site_id
 _symmetry_equiv_pos_as_xyz
  1  'x, y, z'
loop_
 _atom_site_type_symbol
 _atom_site_label
 _atom_site_symmetry_multiplicity
 _atom_site_fract_x
 _atom_site_fract_y
 _atom_site_fract_z
 _atom_site_occupancy
  Pd  Pd0  1  0.25000000  0.00000000  0.75000000  1
  Pd  Pd1  1  0.25000000  0.50000000  0.75000000  1
  Pd  Pd2  1  0.00000000  0.75000000  0.25000000  1
  Pd  Pd3  1  0.50000000  0.75000000  0.25000000  1
  Pd  Pd4  1  0.75000000  0.25000000  0.00000000  1
  Pd  Pd5  1  0.75000000  0.25000000  0.50000000  1
  Pd  Pd6  1  0.75000000  0.00000000  0.25000000  1
  Pd  Pd7  1  0.75000000  0.50000000  0.25000000  1
  Pd  Pd8  1  0.00000000  0.25000000  0.75000000  1
  Pd  Pd9  1  0.50000000  0.25000000  0.75000000  1
  Pd  Pd10  1  0.25000000  0.75000000  0.00000000  1
  Pd  Pd11  1  0.25000000  0.75000000  0.50000000  1
  N  N12  1  0.31561000  0.08191000  0.80555000  1
  N  N13  1  0.18439000  0.08191000  0.69445000  1
  N  N14  1  0.18439000  0.41809000  0.80555000  1
  N  N15  1  0.31561000  0.41809000  0.69445000  1
  N  N16  1  0.91809000  0.81561000  0.30555000  1
  N  N17  1  0.58191000  0.68439000  0.30555000  1
  N  N18  1  0.30555000  0.58191000  0.68439000  1
  N  N19  1  0.19445000  0.58191000  0.81561000  1
  N  N20  1  0.91809000  0.68439000  0.19445000  1
  N  N21  1  0.58191000  0.81561000  0.19445000  1
  N  N22  1  0.80555000  0.31561000  0.08191000  1
  N  N23  1  0.08191000  0.80555000  0.31561000  1
  N  N24  1  0.19445000  0.91809000  0.68439000  1
  N  N25  1  0.68439000  0.19445000  0.91809000  1
  N  N26  1  0.80555000  0.18439000  0.41809000  1
  N  N27  1  0.08191000  0.69445000  0.18439000  1
  N  N28  1  0.69445000  0.31561000  0.41809000  1
  N  N29  1  0.41809000  0.80555000  0.18439000  1
  N  N30  1  0.69445000  0.18439000  0.08191000  1
  N  N31  1  0.41809000  0.69445000  0.31561000  1
  N  N32  1  0.68439000  0.30555000  0.58191000  1
  N  N33  1  0.81561000  0.19445000  0.58191000  1
  N  N34  1  0.30555000  0.91809000  0.81561000  1
  N  N35  1  0.81561000  0.30555000  0.91809000  1
  N  N36  1  0.68439000  0.91809000  0.19445000  1
  N  N37  1  0.81561000  0.91809000  0.30555000  1
  N  N38  1  0.81561000  0.58191000  0.19445000  1
  N  N39  1  0.68439000  0.58191000  0.30555000  1
  N  N40  1  0.08191000  0.18439000  0.69445000  1
  N  N41  1  0.41809000  0.31561000  0.69445000  1
  N  N42  1  0.69445000  0.41809000  0.31561000  1
  N  N43  1  0.80555000  0.41809000  0.18439000  1
  N  N44  1  0.08191000  0.31561000  0.80555000  1
  N  N45  1  0.41809000  0.18439000  0.80555000  1
  N  N46  1  0.19445000  0.68439000  0.91809000  1
  N  N47  1  0.91809000  0.19445000  0.68439000  1
  N  N48  1  0.80555000  0.08191000  0.31561000  1
  N  N49  1  0.31561000  0.80555000  0.08191000  1
  N  N50  1  0.19445000  0.81561000  0.58191000  1
  N  N51  1  0.91809000  0.30555000  0.81561000  1
  N  N52  1  0.30555000  0.68439000  0.58191000  1
  N  N53  1  0.58191000  0.19445000  0.81561000  1
  N  N54  1  0.30555000  0.81561000  0.91809000  1
  N  N55  1  0.58191000  0.30555000  0.68439000  1
  N  N56  1  0.31561000  0.69445000  0.41809000  1
  N  N57  1  0.18439000  0.80555000  0.41809000  1
  N  N58  1  0.69445000  0.08191000  0.18439000  1
  N  N59  1  0.18439000  0.69445000  0.08191000  1
  C  C60  1  0.29033000  0.10747000  0.88089000  1
  C  C61  1  0.20967000  0.10747000  0.61911000  1
  C  C62  1  0.20967000  0.39253000  0.88089000  1
  C  C63  1  0.29033000  0.39253000  0.61911000  1
  C  C64  1  0.89253000  0.79033000  0.38089000  1
  C  C65  1  0.60747000  0.70967000  0.38089000  1
  C  C66  1  0.38089000  0.60747000  0.70967000  1
  C  C67  1  0.11911000  0.60747000  0.79033000  1
  C  C68  1  0.89253000  0.70967000  0.11911000  1
  C  C69  1  0.60747000  0.79033000  0.11911000  1
  C  C70  1  0.88089000  0.29033000  0.10747000  1
  C  C71  1  0.10747000  0.88089000  0.29033000  1
  C  C72  1  0.11911000  0.89253000  0.70967000  1
  C  C73  1  0.70967000  0.11911000  0.89253000  1
  C  C74  1  0.88089000  0.20967000  0.39253000  1
  C  C75  1  0.10747000  0.61911000  0.20967000  1
  C  C76  1  0.61911000  0.29033000  0.39253000  1
  C  C77  1  0.39253000  0.88089000  0.20967000  1
  C  C78  1  0.61911000  0.20967000  0.10747000  1
  C  C79  1  0.39253000  0.61911000  0.29033000  1
  C  C80  1  0.70967000  0.38089000  0.60747000  1
  C  C81  1  0.79033000  0.11911000  0.60747000  1
  C  C82  1  0.38089000  0.89253000  0.79033000  1
  C  C83  1  0.79033000  0.38089000  0.89253000  1
  C  C84  1  0.70967000  0.89253000  0.11911000  1
  C  C85  1  0.79033000  0.89253000  0.38089000  1
  C  C86  1  0.79033000  0.60747000  0.11911000  1
  C  C87  1  0.70967000  0.60747000  0.38089000  1
  C  C88  1  0.10747000  0.20967000  0.61911000  1
  C  C89  1  0.39253000  0.29033000  0.61911000  1
  C  C90  1  0.61911000  0.39253000  0.29033000  1
  C  C91  1  0.88089000  0.39253000  0.20967000  1
  C  C92  1  0.10747000  0.29033000  0.88089000  1
  C  C93  1  0.39253000  0.20967000  0.88089000  1
  C  C94  1  0.11911000  0.70967000  0.89253000  1
  C  C95  1  0.89253000  0.11911000  0.70967000  1
  C  C96  1  0.88089000  0.10747000  0.29033000  1
  C  C97  1  0.29033000  0.88089000  0.10747000  1
  C  C98  1  0.11911000  0.79033000  0.60747000  1
  C  C99  1  0.89253000  0.38089000  0.79033000  1
  C  C100  1  0.38089000  0.70967000  0.60747000  1
  C  C101  1  0.60747000  0.11911000  0.79033000  1
  C  C102  1  0.38089000  0.79033000  0.89253000  1
  C  C103  1  0.60747000  0.38089000  0.70967000  1
  C  C104  1  0.29033000  0.61911000  0.39253000  1
  C  C105  1  0.20967000  0.88089000  0.39253000  1
  C  C106  1  0.61911000  0.10747000  0.20967000  1
  C  C107  1  0.20967000  0.61911000  0.10747000  1
  C  C108  1  0.37934000  0.12046000  0.76773000  1
  C  C109  1  0.12066000  0.12046000  0.73227000  1
  C  C110  1  0.12066000  0.37954000  0.76773000  1
  C  C111  1  0.37934000  0.37954000  0.73227000  1
  C  C112  1  0.87954000  0.87934000  0.26773000  1
  C  C113  1  0.62046000  0.62066000  0.26773000  1
  C  C114  1  0.26773000  0.62046000  0.62066000  1
  C  C115  1  0.23227000  0.62046000  0.87934000  1
  C  C116  1  0.87954000  0.62066000  0.23227000  1
  C  C117  1  0.62046000  0.87934000  0.23227000  1
  C  C118  1  0.76773000  0.37934000  0.12046000  1
  C  C119  1  0.12046000  0.76773000  0.37934000  1
  C  C120  1  0.23227000  0.87954000  0.62066000  1
  C  C121  1  0.62066000  0.23227000  0.87954000  1
  C  C122  1  0.76773000  0.12066000  0.37954000  1
  C  C123  1  0.12046000  0.73227000  0.12066000  1
  C  C124  1  0.73227000  0.37934000  0.37954000  1
  C  C125  1  0.37954000  0.76773000  0.12066000  1
  C  C126  1  0.73227000  0.12066000  0.12046000  1
  C  C127  1  0.37954000  0.73227000  0.37934000  1
  C  C128  1  0.62066000  0.26773000  0.62046000  1
  C  C129  1  0.87934000  0.23227000  0.62046000  1
  C  C130  1  0.26773000  0.87954000  0.87934000  1
  C  C131  1  0.87934000  0.26773000  0.87954000  1
  C  C132  1  0.32888000  0.17120000  0.91871000  1
  C  C133  1  0.17112000  0.17120000  0.58129000  1
  C  C134  1  0.17112000  0.32880000  0.91871000  1
  C  C135  1  0.32888000  0.32880000  0.58129000  1
  C  C136  1  0.82880000  0.82888000  0.41871000  1
  C  C137  1  0.67120000  0.67112000  0.41871000  1
  C  C138  1  0.41871000  0.67120000  0.67112000  1
  C  C139  1  0.08129000  0.67120000  0.82888000  1
  C  C140  1  0.82880000  0.67112000  0.08129000  1
  C  C141  1  0.67120000  0.82888000  0.08129000  1
  C  C142  1  0.91871000  0.32888000  0.17120000  1
  C  C143  1  0.17120000  0.91871000  0.32888000  1
  C  C144  1  0.08129000  0.82880000  0.67112000  1
  C  C145  1  0.67112000  0.08129000  0.82880000  1
  C  C146  1  0.91871000  0.17112000  0.32880000  1
  C  C147  1  0.17120000  0.58129000  0.17112000  1
  C  C148  1  0.58129000  0.32888000  0.32880000  1
  C  C149  1  0.32880000  0.91871000  0.17112000  1
  C  C150  1  0.58129000  0.17112000  0.17120000  1
  C  C151  1  0.32880000  0.58129000  0.32888000  1
  C  C152  1  0.67112000  0.41871000  0.67120000  1
  C  C153  1  0.82888000  0.08129000  0.67120000  1
  C  C154  1  0.41871000  0.82880000  0.82888000  1
  C  C155  1  0.82888000  0.41871000  0.82880000  1
  O  O156  1  0.40258000  0.09717000  0.69835000  1
  O  O157  1  0.09742000  0.09717000  0.80165000  1
  O  O158  1  0.09742000  0.40283000  0.69835000  1
  O  O159  1  0.40258000  0.40283000  0.80165000  1
  O  O160  1  0.90283000  0.90258000  0.19835000  1
  O  O161  1  0.59717000  0.59742000  0.19835000  1
  O  O162  1  0.19835000  0.59717000  0.59742000  1
  O  O163  1  0.30165000  0.59717000  0.90258000  1
  O  O164  1  0.90283000  0.59742000  0.30165000  1
  O  O165  1  0.59717000  0.90258000  0.30165000  1
  O  O166  1  0.69835000  0.40258000  0.09717000  1
  O  O167  1  0.09717000  0.69835000  0.40258000  1
  O  O168  1  0.30165000  0.90283000  0.59742000  1
  O  O169  1  0.59742000  0.30165000  0.90283000  1
  O  O170  1  0.69835000  0.09742000  0.40283000  1
  O  O171  1  0.09717000  0.80165000  0.09742000  1
  O  O172  1  0.80165000  0.40258000  0.40283000  1
  O  O173  1  0.40283000  0.69835000  0.09742000  1
  O  O174  1  0.80165000  0.09742000  0.09717000  1
  O  O175  1  0.40283000  0.80165000  0.40258000  1
  O  O176  1  0.59742000  0.19835000  0.59717000  1
  O  O177  1  0.90258000  0.30165000  0.59717000  1
  O  O178  1  0.19835000  0.90283000  0.90258000  1
  O  O179  1  0.90258000  0.19835000  0.90283000  1
  H  H180  1  0.24570000  0.08060000  0.90720000  1
  H  H181  1  0.25430000  0.08060000  0.59280000  1
  H  H182  1  0.25430000  0.41940000  0.90720000  1
  H  H183  1  0.24570000  0.41940000  0.59280000  1
  H  H184  1  0.91940000  0.74570000  0.40720000  1
  H  H185  1  0.58060000  0.75430000  0.40720000  1
  H  H186  1  0.40720000  0.58060000  0.75430000  1
  H  H187  1  0.09280000  0.58060000  0.74570000  1
  H  H188  1  0.91940000  0.75430000  0.09280000  1
  H  H189  1  0.58060000  0.74570000  0.09280000  1
  H  H190  1  0.90720000  0.24570000  0.08060000  1
  H  H191  1  0.08060000  0.90720000  0.24570000  1
  H  H192  1  0.09280000  0.91940000  0.75430000  1
  H  H193  1  0.75430000  0.09280000  0.91940000  1
  H  H194  1  0.90720000  0.25430000  0.41940000  1
  H  H195  1  0.08060000  0.59280000  0.25430000  1
  H  H196  1  0.59280000  0.24570000  0.41940000  1
  H  H197  1  0.41940000  0.90720000  0.25430000  1
  H  H198  1  0.59280000  0.25430000  0.08060000  1
  H  H199  1  0.41940000  0.59280000  0.24570000  1
  H  H200  1  0.75430000  0.40720000  0.58060000  1
  H  H201  1  0.74570000  0.09280000  0.58060000  1
  H  H202  1  0.40720000  0.91940000  0.74570000  1
  H  H203  1  0.74570000  0.40720000  0.91940000  1
  H  H204  1  0.75430000  0.91940000  0.09280000  1
  H  H205  1  0.74570000  0.91940000  0.40720000  1
  H  H206  1  0.74570000  0.58060000  0.09280000  1
  H  H207  1  0.75430000  0.58060000  0.40720000  1
  H  H208  1  0.08060000  0.25430000  0.59280000  1
  H  H209  1  0.41940000  0.24570000  0.59280000  1
  H  H210  1  0.59280000  0.41940000  0.24570000  1
  H  H211  1  0.90720000  0.41940000  0.25430000  1
  H  H212  1  0.08060000  0.24570000  0.90720000  1
  H  H213  1  0.41940000  0.25430000  0.90720000  1
  H  H214  1  0.09280000  0.75430000  0.91940000  1
  H  H215  1  0.91940000  0.09280000  0.75430000  1
  H  H216  1  0.90720000  0.08060000  0.24570000  1
  H  H217  1  0.24570000  0.90720000  0.08060000  1
  H  H218  1  0.09280000  0.74570000  0.58060000  1
  H  H219  1  0.91940000  0.40720000  0.74570000  1
  H  H220  1  0.40720000  0.75430000  0.58060000  1
  H  H221  1  0.58060000  0.09280000  0.74570000  1
  H  H222  1  0.40720000  0.74570000  0.91940000  1
  H  H223  1  0.58060000  0.40720000  0.75430000  1
  H  H224  1  0.24570000  0.59280000  0.41940000  1
  H  H225  1  0.25430000  0.90720000  0.41940000  1
  H  H226  1  0.59280000  0.08060000  0.25430000  1
  H  H227  1  0.25430000  0.59280000  0.08060000  1
  H  H228  1  0.31118000  0.18886000  0.97144000  1
  H  H229  1  0.18882000  0.18886000  0.52856000  1
  H  H230  1  0.18882000  0.31114000  0.97144000  1
  H  H231  1  0.31118000  0.31114000  0.52856000  1
  H  H232  1  0.81114000  0.81118000  0.47144000  1
  H  H233  1  0.68886000  0.68882000  0.47144000  1
  H  H234  1  0.47144000  0.68886000  0.68882000  1
  H  H235  1  0.02856000  0.68886000  0.81118000  1
  H  H236  1  0.81114000  0.68882000  0.02856000  1
  H  H237  1  0.68886000  0.81118000  0.02856000  1
  H  H238  1  0.97144000  0.31118000  0.18886000  1
  H  H239  1  0.18886000  0.97144000  0.31118000  1
  H  H240  1  0.02856000  0.81114000  0.68882000  1
  H  H241  1  0.68882000  0.02856000  0.81114000  1
  H  H242  1  0.97144000  0.18882000  0.31114000  1
  H  H243  1  0.18886000  0.52856000  0.18882000  1
  H  H244  1  0.52856000  0.31118000  0.31114000  1
  H  H245  1  0.31114000  0.97144000  0.18882000  1
  H  H246  1  0.52856000  0.18882000  0.18886000  1
  H  H247  1  0.31114000  0.52856000  0.31118000  1
  H  H248  1  0.68882000  0.47144000  0.68886000  1
  H  H249  1  0.81118000  0.02856000  0.68886000  1
  H  H250  1  0.47144000  0.81114000  0.81118000  1
  H  H251  1  0.81118000  0.47144000  0.81114000  1
