# generated using pymatgen
data_K2B2H6C14N7OF3
_symmetry_space_group_name_H-M   'P 1'
_cell_length_a   25.51181500
_cell_length_b   25.51181500
_cell_length_c   12.19148000
_cell_angle_alpha   90.00000000
_cell_angle_beta   90.00000000
_cell_angle_gamma   90.00000000
_symmetry_Int_Tables_number   1
_chemical_formula_structural   K2B2H6C14N7OF3
_chemical_formula_sum   'K32 B32 H96 C224 N112 O16 F48'
_cell_volume   7934.85773101
_cell_formula_units_Z   16
loop_
 _symmetry_equiv_pos_site_id
 _symmetry_equiv_pos_as_xyz
  1  'x, y, z'
loop_
 _atom_site_type_symbol
 _atom_site_label
 _atom_site_symmetry_multiplicity
 _atom_site_fract_x
 _atom_site_fract_y
 _atom_site_fract_z
 _atom_site_occupancy
  N  N0  1  0.21607130  0.17165120  0.28113000  1
  N  N1  1  0.28392870  0.82834880  0.78113000  1
  N  N2  1  0.57834880  0.46607130  0.53113000  1
  N  N3  1  0.92165120  0.53392870  0.03113000  1
  N  N4  1  0.71607130  0.67165120  0.78113000  1
  N  N5  1  0.78392870  0.32834880  0.28113000  1
  N  N6  1  0.07834880  0.96607130  0.03113000  1
  N  N7  1  0.42165120  0.03392870  0.53113000  1
  N  N8  1  0.78392870  0.82834880  0.71887000  1
  N  N9  1  0.71607130  0.17165120  0.21887000  1
  N  N10  1  0.42165120  0.53392870  0.46887000  1
  N  N11  1  0.07834880  0.46607130  0.96887000  1
  N  N12  1  0.28392870  0.32834880  0.21887000  1
  N  N13  1  0.21607130  0.67165120  0.71887000  1
  N  N14  1  0.92165120  0.03392870  0.96887000  1
  N  N15  1  0.57834880  0.96607130  0.46887000  1
  C  C16  1  0.19424160  0.20891150  0.22513000  1
  C  C17  1  0.30575840  0.79108850  0.72513000  1
  C  C18  1  0.54108850  0.44424160  0.47513000  1
  C  C19  1  0.95891150  0.55575840  0.97513000  1
  C  C20  1  0.69424160  0.70891150  0.72513000  1
  C  C21  1  0.80575840  0.29108850  0.22513000  1
  C  C22  1  0.04108850  0.94424160  0.97513000  1
  C  C23  1  0.45891150  0.05575840  0.47513000  1
  C  C24  1  0.80575840  0.79108850  0.77487000  1
  C  C25  1  0.69424160  0.20891150  0.27487000  1
  C  C26  1  0.45891150  0.55575840  0.52487000  1
  C  C27  1  0.04108850  0.44424160  0.02487000  1
  C  C28  1  0.30575840  0.29108850  0.27487000  1
  C  C29  1  0.19424160  0.70891150  0.77487000  1
  C  C30  1  0.95891150  0.05575840  0.02487000  1
  C  C31  1  0.54108850  0.94424160  0.52487000  1
  F  F32  1  0.15267100  0.23277100  0.27242000  1
  F  F33  1  0.34732900  0.76722900  0.77242000  1
  F  F34  1  0.51722900  0.40267100  0.52242000  1
  F  F35  1  0.98277100  0.59732900  0.02242000  1
  F  F36  1  0.65267100  0.73277100  0.77242000  1
  F  F37  1  0.84732900  0.26722900  0.27242000  1
  F  F38  1  0.01722900  0.90267100  0.02242000  1
  F  F39  1  0.48277100  0.09732900  0.52242000  1
  F  F40  1  0.84732900  0.76722900  0.72758000  1
  F  F41  1  0.65267100  0.23277100  0.22758000  1
  F  F42  1  0.48277100  0.59732900  0.47758000  1
  F  F43  1  0.01722900  0.40267100  0.97758000  1
  F  F44  1  0.34732900  0.26722900  0.22758000  1
  F  F45  1  0.15267100  0.73277100  0.72758000  1
  F  F46  1  0.98277100  0.09732900  0.97758000  1
  F  F47  1  0.51722900  0.90267100  0.47758000  1
  C  C48  1  0.20922180  0.22441150  0.12153000  1
  C  C49  1  0.29077820  0.77558850  0.62153000  1
  C  C50  1  0.52558850  0.45922180  0.37153000  1
  C  C51  1  0.97441150  0.54077820  0.87153000  1
  C  C52  1  0.70922180  0.72441150  0.62153000  1
  C  C53  1  0.79077820  0.27558850  0.12153000  1
  C  C54  1  0.02558850  0.95922180  0.87153000  1
  C  C55  1  0.47441150  0.04077820  0.37153000  1
  C  C56  1  0.79077820  0.77558850  0.87847000  1
  C  C57  1  0.70922180  0.22441150  0.37847000  1
  C  C58  1  0.47441150  0.54077820  0.62847000  1
  C  C59  1  0.02558850  0.45922180  0.12847000  1
  C  C60  1  0.29077820  0.27558850  0.37847000  1
  C  C61  1  0.20922180  0.72441150  0.87847000  1
  C  C62  1  0.97441150  0.04077820  0.12847000  1
  C  C63  1  0.52558850  0.95922180  0.62847000  1
  F  F64  1  0.18186120  0.26162100  0.07122000  1
  F  F65  1  0.31813880  0.73837900  0.57122000  1
  F  F66  1  0.48837900  0.43186120  0.32122000  1
  F  F67  1  0.01162100  0.56813880  0.82122000  1
  F  F68  1  0.68186120  0.76162100  0.57122000  1
  F  F69  1  0.81813880  0.23837900  0.07122000  1
  F  F70  1  0.98837900  0.93186120  0.82122000  1
  F  F71  1  0.51162100  0.06813880  0.32122000  1
  F  F72  1  0.81813880  0.73837900  0.92878000  1
  F  F73  1  0.68186120  0.26162100  0.42878000  1
  F  F74  1  0.51162100  0.56813880  0.67878000  1
  F  F75  1  0.98837900  0.43186120  0.17878000  1
  F  F76  1  0.31813880  0.23837900  0.42878000  1
  F  F77  1  0.18186120  0.76162100  0.92878000  1
  F  F78  1  0.01162100  0.06813880  0.17878000  1
  F  F79  1  0.48837900  0.93186120  0.67878000  1
  C  C80  1  0.25113170  0.20121170  0.07113000  1
  C  C81  1  0.24886830  0.79878830  0.57113000  1
  C  C82  1  0.54878830  0.50113170  0.32113000  1
  C  C83  1  0.95121170  0.49886830  0.82113000  1
  C  C84  1  0.75113170  0.70121170  0.57113000  1
  C  C85  1  0.74886830  0.29878830  0.07113000  1
  C  C86  1  0.04878830  0.00113170  0.82113000  1
  C  C87  1  0.45121170  0.00000000  0.32113000  1
  C  C88  1  0.74886830  0.79878830  0.92887000  1
  C  C89  1  0.75113170  0.20121170  0.42887000  1
  C  C90  1  0.45121170  0.49886830  0.67887000  1
  C  C91  1  0.04878830  0.50113170  0.17887000  1
  C  C92  1  0.24886830  0.29878830  0.42887000  1
  C  C93  1  0.25113170  0.70121170  0.92887000  1
  C  C94  1  0.95121170  0.00000000  0.17887000  1
  C  C95  1  0.54878830  0.00113170  0.67887000  1
  B  B96  1  0.26733000  0.21423000  0.94504000  1
  B  B97  1  0.23267000  0.78577000  0.44504000  1
  B  B98  1  0.53577000  0.51733000  0.19504000  1
  B  B99  1  0.96423000  0.48267000  0.69504000  1
  B  B100  1  0.76733000  0.71423000  0.44504000  1
  B  B101  1  0.73267000  0.28577000  0.94504000  1
  B  B102  1  0.03577000  0.01733000  0.69504000  1
  B  B103  1  0.46423000  0.98267000  0.19504000  1
  B  B104  1  0.73267000  0.78577000  0.05496000  1
  B  B105  1  0.76733000  0.21423000  0.55496000  1
  B  B106  1  0.46423000  0.48267000  0.80496000  1
  B  B107  1  0.03577000  0.51733000  0.30496000  1
  B  B108  1  0.23267000  0.28577000  0.55496000  1
  B  B109  1  0.26733000  0.71423000  0.05496000  1
  B  B110  1  0.96423000  0.98267000  0.30496000  1
  B  B111  1  0.53577000  0.01733000  0.80496000  1
  C  C112  1  0.31343000  0.17972000  0.89305000  1
  C  C113  1  0.18657000  0.82028000  0.39305000  1
  C  C114  1  0.57028000  0.56343000  0.14305000  1
  C  C115  1  0.92972000  0.43657000  0.64305000  1
  C  C116  1  0.81343000  0.67972000  0.39305000  1
  C  C117  1  0.68657000  0.32028000  0.89305000  1
  C  C118  1  0.07028000  0.06343000  0.64305000  1
  C  C119  1  0.42972000  0.93657000  0.14305000  1
  C  C120  1  0.68657000  0.82028000  0.10695000  1
  C  C121  1  0.81343000  0.17972000  0.60695000  1
  C  C122  1  0.42972000  0.43657000  0.85695000  1
  C  C123  1  0.07028000  0.56343000  0.35695000  1
  C  C124  1  0.18657000  0.32028000  0.60695000  1
  C  C125  1  0.31343000  0.67972000  0.10695000  1
  C  C126  1  0.92972000  0.93657000  0.35695000  1
  C  C127  1  0.57028000  0.06343000  0.85695000  1
  N  N128  1  0.34543000  0.15492000  0.85116000  1
  N  N129  1  0.15457000  0.84508000  0.35116000  1
  N  N130  1  0.59508000  0.59543000  0.10116000  1
  N  N131  1  0.90492000  0.40457000  0.60116000  1
  N  N132  1  0.84543000  0.65492000  0.35116000  1
  N  N133  1  0.65457000  0.34508000  0.85116000  1
  N  N134  1  0.09508000  0.09543000  0.60116000  1
  N  N135  1  0.40492000  0.90457000  0.10116000  1
  N  N136  1  0.65457000  0.84508000  0.14884000  1
  N  N137  1  0.84543000  0.15492000  0.64884000  1
  N  N138  1  0.40492000  0.40457000  0.89884000  1
  N  N139  1  0.09508000  0.59543000  0.39884000  1
  N  N140  1  0.15457000  0.34508000  0.64884000  1
  N  N141  1  0.34543000  0.65492000  0.14884000  1
  N  N142  1  0.90492000  0.90457000  0.39884000  1
  N  N143  1  0.59508000  0.09543000  0.89884000  1
  C  C144  1  0.21843000  0.20382000  0.86915000  1
  C  C145  1  0.28157000  0.79618000  0.36915000  1
  C  C146  1  0.54618000  0.46843000  0.11915000  1
  C  C147  1  0.95382000  0.53157000  0.61915000  1
  C  C148  1  0.71843000  0.70382000  0.36915000  1
  C  C149  1  0.78157000  0.29618000  0.86915000  1
  C  C150  1  0.04618000  0.96843000  0.61915000  1
  C  C151  1  0.45382000  0.03157000  0.11915000  1
  C  C152  1  0.78157000  0.79618000  0.13085000  1
  C  C153  1  0.71843000  0.20382000  0.63085000  1
  C  C154  1  0.45382000  0.53157000  0.88085000  1
  C  C155  1  0.04618000  0.46843000  0.38085000  1
  C  C156  1  0.28157000  0.29618000  0.63085000  1
  C  C157  1  0.21843000  0.70382000  0.13085000  1
  C  C158  1  0.95382000  0.03157000  0.38085000  1
  C  C159  1  0.54618000  0.96843000  0.88085000  1
  N  N160  1  0.18313000  0.19263000  0.81525000  1
  N  N161  1  0.31687000  0.80737000  0.31525000  1
  N  N162  1  0.55737000  0.43313000  0.06525000  1
  N  N163  1  0.94263000  0.56687000  0.56525000  1
  N  N164  1  0.68313000  0.69263000  0.31525000  1
  N  N165  1  0.81687000  0.30737000  0.81525000  1
  N  N166  1  0.05737000  0.93313000  0.56525000  1
  N  N167  1  0.44263000  0.06687000  0.06525000  1
  N  N168  1  0.81687000  0.80737000  0.18475000  1
  N  N169  1  0.68313000  0.19263000  0.68475000  1
  N  N170  1  0.44263000  0.56687000  0.93475000  1
  N  N171  1  0.05737000  0.43313000  0.43475000  1
  N  N172  1  0.31687000  0.30737000  0.68475000  1
  N  N173  1  0.18313000  0.69263000  0.18475000  1
  N  N174  1  0.94263000  0.06687000  0.43475000  1
  N  N175  1  0.55737000  0.93313000  0.93475000  1
  C  C176  1  0.28433000  0.27412000  0.94035000  1
  C  C177  1  0.21567000  0.72588000  0.44035000  1
  C  C178  1  0.47588000  0.53433000  0.19035000  1
  C  C179  1  0.02412000  0.46567000  0.69035000  1
  C  C180  1  0.78433000  0.77412000  0.44035000  1
  C  C181  1  0.71567000  0.22588000  0.94035000  1
  C  C182  1  0.97588000  0.03433000  0.69035000  1
  C  C183  1  0.52412000  0.96567000  0.19035000  1
  C  C184  1  0.71567000  0.72588000  0.05965000  1
  C  C185  1  0.78433000  0.27412000  0.55965000  1
  C  C186  1  0.52412000  0.46567000  0.80965000  1
  C  C187  1  0.97588000  0.53433000  0.30965000  1
  C  C188  1  0.21567000  0.22588000  0.55965000  1
  C  C189  1  0.28433000  0.77412000  0.05965000  1
  C  C190  1  0.02412000  0.96567000  0.30965000  1
  C  C191  1  0.47588000  0.03433000  0.80965000  1
  N  N192  1  0.29793000  0.31692000  0.93875000  1
  N  N193  1  0.20207000  0.68308000  0.43875000  1
  N  N194  1  0.43308000  0.54793000  0.18875000  1
  N  N195  1  0.06692000  0.45207000  0.68875000  1
  N  N196  1  0.79793000  0.81692000  0.43875000  1
  N  N197  1  0.70207000  0.18308000  0.93875000  1
  N  N198  1  0.93308000  0.04793000  0.68875000  1
  N  N199  1  0.56692000  0.95207000  0.18875000  1
  N  N200  1  0.70207000  0.68308000  0.06125000  1
  N  N201  1  0.79793000  0.31692000  0.56125000  1
  N  N202  1  0.56692000  0.45207000  0.81125000  1
  N  N203  1  0.93308000  0.54793000  0.31125000  1
  N  N204  1  0.20207000  0.18308000  0.56125000  1
  N  N205  1  0.29793000  0.81692000  0.06125000  1
  N  N206  1  0.06692000  0.95207000  0.31125000  1
  N  N207  1  0.43308000  0.04793000  0.81125000  1
  C  C208  1  0.27442160  0.16248160  0.13403000  1
  C  C209  1  0.22557840  0.83751840  0.63403000  1
  C  C210  1  0.58751840  0.52442160  0.38403000  1
  C  C211  1  0.91248160  0.47557840  0.88403000  1
  C  C212  1  0.77442160  0.66248160  0.63403000  1
  C  C213  1  0.72557840  0.33751840  0.13403000  1
  C  C214  1  0.08751840  0.02442160  0.88403000  1
  C  C215  1  0.41248160  0.97557840  0.38403000  1
  C  C216  1  0.72557840  0.83751840  0.86597000  1
  C  C217  1  0.77442160  0.16248160  0.36597000  1
  C  C218  1  0.41248160  0.47557840  0.61597000  1
  C  C219  1  0.08751840  0.52442160  0.11597000  1
  C  C220  1  0.22557840  0.33751840  0.36597000  1
  C  C221  1  0.27442160  0.66248160  0.86597000  1
  C  C222  1  0.91248160  0.97557840  0.11597000  1
  C  C223  1  0.58751840  0.02442160  0.61597000  1
  F  F224  1  0.31751900  0.13769110  0.09232000  1
  F  F225  1  0.18248100  0.86230890  0.59232000  1
  F  F226  1  0.61230890  0.56751900  0.34232000  1
  F  F227  1  0.88769110  0.43248100  0.84232000  1
  F  F228  1  0.81751900  0.63769110  0.59232000  1
  F  F229  1  0.68248100  0.36230890  0.09232000  1
  F  F230  1  0.11230890  0.06751900  0.84232000  1
  F  F231  1  0.38769110  0.93248100  0.34232000  1
  F  F232  1  0.68248100  0.86230890  0.90768000  1
  F  F233  1  0.81751900  0.13769110  0.40768000  1
  F  F234  1  0.38769110  0.43248100  0.65768000  1
  F  F235  1  0.11230890  0.56751900  0.15768000  1
  F  F236  1  0.18248100  0.36230890  0.40768000  1
  F  F237  1  0.31751900  0.63769110  0.90768000  1
  F  F238  1  0.88769110  0.93248100  0.15768000  1
  F  F239  1  0.61230890  0.06751900  0.65768000  1
  C  C240  1  0.25744150  0.14660140  0.23573000  1
  C  C241  1  0.24255850  0.85339860  0.73573000  1
  C  C242  1  0.60339860  0.50744150  0.48573000  1
  C  C243  1  0.89660140  0.49255850  0.98573000  1
  C  C244  1  0.75744150  0.64660140  0.73573000  1
  C  C245  1  0.74255850  0.35339860  0.23573000  1
  C  C246  1  0.10339860  0.00744150  0.98573000  1
  C  C247  1  0.39660140  0.99255850  0.48573000  1
  C  C248  1  0.74255850  0.85339860  0.76427000  1
  C  C249  1  0.75744150  0.14660140  0.26427000  1
  C  C250  1  0.39660140  0.49255850  0.51427000  1
  C  C251  1  0.10339860  0.50744150  0.01427000  1
  C  C252  1  0.24255850  0.35339860  0.26427000  1
  C  C253  1  0.25744150  0.64660140  0.76427000  1
  C  C254  1  0.89660140  0.99255850  0.01427000  1
  C  C255  1  0.60339860  0.00744150  0.51427000  1
  B  B256  1  0.28306190  0.09882180  0.30594000  1
  B  B257  1  0.21693810  0.90117820  0.80594000  1
  B  B258  1  0.65117820  0.53306190  0.55594000  1
  B  B259  1  0.84882180  0.46693810  0.05594000  1
  B  B260  1  0.78306190  0.59882180  0.80594000  1
  B  B261  1  0.71693810  0.40117820  0.30594000  1
  B  B262  1  0.15117820  0.03306190  0.05594000  1
  B  B263  1  0.34882180  0.96693810  0.55594000  1
  B  B264  1  0.71693810  0.90117820  0.69406000  1
  B  B265  1  0.78306190  0.09882180  0.19406000  1
  B  B266  1  0.34882180  0.46693810  0.44406000  1
  B  B267  1  0.15117820  0.53306190  0.94406000  1
  B  B268  1  0.21693810  0.40117820  0.19406000  1
  B  B269  1  0.28306190  0.59882180  0.69406000  1
  B  B270  1  0.84882180  0.96693810  0.94406000  1
  B  B271  1  0.65117820  0.03306190  0.44406000  1
  C  C272  1  0.33152000  0.11808170  0.37744000  1
  C  C273  1  0.16848000  0.88191830  0.87744000  1
  C  C274  1  0.63191830  0.58152000  0.62744000  1
  C  C275  1  0.86808170  0.41848000  0.12744000  1
  C  C276  1  0.83152000  0.61808170  0.87744000  1
  C  C277  1  0.66848000  0.38191830  0.37744000  1
  C  C278  1  0.13191830  0.08152000  0.12744000  1
  C  C279  1  0.36808170  0.91848000  0.62744000  1
  C  C280  1  0.66848000  0.88191830  0.62256000  1
  C  C281  1  0.83152000  0.11808170  0.12256000  1
  C  C282  1  0.36808170  0.41848000  0.37256000  1
  C  C283  1  0.13191830  0.58152000  0.87256000  1
  C  C284  1  0.16848000  0.38191830  0.12256000  1
  C  C285  1  0.33152000  0.61808170  0.62256000  1
  C  C286  1  0.86808170  0.91848000  0.87256000  1
  C  C287  1  0.63191830  0.08152000  0.37256000  1
  N  N288  1  0.36602000  0.13164170  0.42895000  1
  N  N289  1  0.13398000  0.86835830  0.92895000  1
  N  N290  1  0.61835830  0.61602000  0.67895000  1
  N  N291  1  0.88164170  0.38398000  0.17895000  1
  N  N292  1  0.86602000  0.63164170  0.92895000  1
  N  N293  1  0.63398000  0.36835830  0.42895000  1
  N  N294  1  0.11835830  0.11602000  0.17895000  1
  N  N295  1  0.38164170  0.88398000  0.67895000  1
  N  N296  1  0.63398000  0.86835830  0.57105000  1
  N  N297  1  0.86602000  0.13164170  0.07105000  1
  N  N298  1  0.38164170  0.38398000  0.32105000  1
  N  N299  1  0.11835830  0.61602000  0.82105000  1
  N  N300  1  0.13398000  0.36835830  0.07105000  1
  N  N301  1  0.36602000  0.63164170  0.57105000  1
  N  N302  1  0.88164170  0.88398000  0.82105000  1
  N  N303  1  0.61835830  0.11602000  0.32105000  1
  C  C304  1  0.23977190  0.07595160  0.38754000  1
  C  C305  1  0.26022810  0.92404840  0.88754000  1
  C  C306  1  0.67404840  0.48977190  0.63754000  1
  C  C307  1  0.82595160  0.51022810  0.13754000  1
  C  C308  1  0.73977190  0.57595160  0.88754000  1
  C  C309  1  0.76022810  0.42404840  0.38754000  1
  C  C310  1  0.17404840  0.98977190  0.13754000  1
  C  C311  1  0.32595160  0.01022810  0.63754000  1
  C  C312  1  0.76022810  0.92404840  0.61246000  1
  C  C313  1  0.73977190  0.07595160  0.11246000  1
  C  C314  1  0.32595160  0.51022810  0.36246000  1
  C  C315  1  0.17404840  0.48977190  0.86246000  1
  C  C316  1  0.26022810  0.42404840  0.11246000  1
  C  C317  1  0.23977190  0.57595160  0.61246000  1
  C  C318  1  0.82595160  0.01022810  0.86246000  1
  C  C319  1  0.67404840  0.98977190  0.36246000  1
  N  N320  1  0.20780190  0.05958160  0.44374000  1
  N  N321  1  0.29219810  0.94041840  0.94374000  1
  N  N322  1  0.69041840  0.45780190  0.69374000  1
  N  N323  1  0.80958160  0.54219810  0.19374000  1
  N  N324  1  0.70780190  0.55958160  0.94374000  1
  N  N325  1  0.79219810  0.44041840  0.44374000  1
  N  N326  1  0.19041840  0.95780190  0.19374000  1
  N  N327  1  0.30958160  0.04219810  0.69374000  1
  N  N328  1  0.79219810  0.94041840  0.55626000  1
  N  N329  1  0.70780190  0.05958160  0.05626000  1
  N  N330  1  0.30958160  0.54219810  0.30626000  1
  N  N331  1  0.19041840  0.45780190  0.80626000  1
  N  N332  1  0.29219810  0.44041840  0.05626000  1
  N  N333  1  0.20780190  0.55958160  0.55626000  1
  N  N334  1  0.80958160  0.04219810  0.80626000  1
  N  N335  1  0.69041840  0.95780190  0.30626000  1
  C  C336  1  0.30276160  0.05174160  0.22954000  1
  C  C337  1  0.19723840  0.94825840  0.72954000  1
  C  C338  1  0.69825840  0.55276160  0.47954000  1
  C  C339  1  0.80174160  0.44723840  0.97954000  1
  C  C340  1  0.80276160  0.55174160  0.72954000  1
  C  C341  1  0.69723840  0.44825840  0.22954000  1
  C  C342  1  0.19825840  0.05276160  0.97954000  1
  C  C343  1  0.30174160  0.94723840  0.47954000  1
  C  C344  1  0.69723840  0.94825840  0.77046000  1
  C  C345  1  0.80276160  0.05174160  0.27046000  1
  C  C346  1  0.30174160  0.44723840  0.52046000  1
  C  C347  1  0.19825840  0.55276160  0.02046000  1
  C  C348  1  0.19723840  0.44825840  0.27046000  1
  C  C349  1  0.30276160  0.55174160  0.77046000  1
  C  C350  1  0.80174160  0.94723840  0.02046000  1
  C  C351  1  0.69825840  0.05276160  0.52046000  1
  N  N352  1  0.31638150  0.01810140  0.17513000  1
  N  N353  1  0.18361850  0.98189860  0.67513000  1
  N  N354  1  0.73189860  0.56638150  0.42513000  1
  N  N355  1  0.76810140  0.43361850  0.92513000  1
  N  N356  1  0.81638150  0.51810140  0.67513000  1
  N  N357  1  0.68361850  0.48189860  0.17513000  1
  N  N358  1  0.23189860  0.06638150  0.92513000  1
  N  N359  1  0.26810140  0.93361850  0.42513000  1
  N  N360  1  0.68361850  0.98189860  0.82487000  1
  N  N361  1  0.81638150  0.01810140  0.32487000  1
  N  N362  1  0.26810140  0.43361850  0.57487000  1
  N  N363  1  0.23189860  0.56638150  0.07487000  1
  N  N364  1  0.18361850  0.48189860  0.32487000  1
  N  N365  1  0.31638150  0.51810140  0.82487000  1
  N  N366  1  0.76810140  0.93361850  0.07487000  1
  N  N367  1  0.73189860  0.06638150  0.57487000  1
  K  K368  1  0.29508400  0.90933600  0.18997800  1
  K  K369  1  0.20491600  0.09066400  0.68997800  1
  K  K370  1  0.84066400  0.54508400  0.43997800  1
  K  K371  1  0.65933600  0.45491600  0.93997800  1
  K  K372  1  0.79508400  0.40933600  0.68997800  1
  K  K373  1  0.70491600  0.59066400  0.18997800  1
  K  K374  1  0.34066400  0.04508400  0.93997800  1
  K  K375  1  0.15933600  0.95491600  0.43997800  1
  K  K376  1  0.70491600  0.09066400  0.81002200  1
  K  K377  1  0.79508400  0.90933600  0.31002200  1
  K  K378  1  0.15933600  0.45491600  0.56002200  1
  K  K379  1  0.34066400  0.54508400  0.06002200  1
  K  K380  1  0.20491600  0.59066400  0.31002200  1
  K  K381  1  0.29508400  0.40933600  0.81002200  1
  K  K382  1  0.65933600  0.95491600  0.06002200  1
  K  K383  1  0.84066400  0.04508400  0.56002200  1
  K  K544  1  0.38968500  0.12921500  0.65542890  1
  K  K545  1  0.11031500  0.87078500  0.15542890  1
  K  K546  1  0.62078500  0.63968500  0.90542890  1
  K  K547  1  0.87921500  0.36031500  0.40542890  1
  K  K548  1  0.88968500  0.62921500  0.15542890  1
  K  K549  1  0.61031500  0.37078500  0.65542890  1
  K  K550  1  0.12078500  0.13968500  0.40542890  1
  K  K551  1  0.37921500  0.86031500  0.90542890  1
  K  K552  1  0.61031500  0.87078500  0.34457110  1
  K  K553  1  0.88968500  0.12921500  0.84457110  1
  K  K554  1  0.37921500  0.36031500  0.09457110  1
  K  K555  1  0.12078500  0.63968500  0.59457110  1
  K  K556  1  0.11031500  0.37078500  0.84457110  1
  K  K557  1  0.38968500  0.62921500  0.34457110  1
  K  K558  1  0.87921500  0.86031500  0.59457110  1
  K  K559  1  0.62078500  0.13968500  0.09457110  1
