# generated using pymatgen
data_Ni12H120C84O73
_symmetry_space_group_name_H-M   'P 1'
_cell_length_a   25.87140000
_cell_length_b   25.87140000
_cell_length_c   13.50030000
_cell_angle_alpha   90.00000000
_cell_angle_beta   90.00000000
_cell_angle_gamma   120.00000000
_symmetry_Int_Tables_number   1
_chemical_formula_structural   Ni12H120C84O73
_chemical_formula_sum   'Ni36 H360 C252 O219'
_cell_volume   7825.53273418
_cell_formula_units_Z   3
loop_
 _symmetry_equiv_pos_site_id
 _symmetry_equiv_pos_as_xyz
  1  'x, y, z'
loop_
 _atom_site_type_symbol
 _atom_site_label
 _atom_site_symmetry_multiplicity
 _atom_site_fract_x
 _atom_site_fract_y
 _atom_site_fract_z
 _atom_site_occupancy
  Ni  Ni0  1  0.34814300  0.38128200  0.07701400  1
  Ni  Ni1  1  0.61871800  0.96686100  0.07701400  1
  Ni  Ni2  1  0.03313900  0.65185700  0.07701400  1
  Ni  Ni3  1  0.01480967  0.71461533  0.41034733  1
  Ni  Ni4  1  0.28538467  0.30019433  0.41034733  1
  Ni  Ni5  1  0.69980567  0.98519033  0.41034733  1
  Ni  Ni6  1  0.68147633  0.04794867  0.74368067  1
  Ni  Ni7  1  0.95205133  0.63352767  0.74368067  1
  Ni  Ni8  1  0.36647233  0.31852367  0.74368067  1
  Ni  Ni9  1  0.65185700  0.61871800  0.92298600  1
  Ni  Ni10  1  0.38128200  0.03313900  0.92298600  1
  Ni  Ni11  1  0.96686100  0.34814300  0.92298600  1
  Ni  Ni12  1  0.98519033  0.28538467  0.58965267  1
  Ni  Ni13  1  0.71461533  0.69980567  0.58965267  1
  Ni  Ni14  1  0.30019433  0.01480967  0.58965267  1
  Ni  Ni15  1  0.31852367  0.95205133  0.25631933  1
  Ni  Ni16  1  0.04794867  0.36647233  0.25631933  1
  Ni  Ni17  1  0.63352767  0.68147633  0.25631933  1
  Ni  Ni18  1  0.36676300  0.31519200  0.24040400  1
  Ni  Ni19  1  0.68480800  0.05157100  0.24040400  1
  Ni  Ni20  1  0.94842900  0.63323700  0.24040400  1
  Ni  Ni21  1  0.03342967  0.64852533  0.57373733  1
  Ni  Ni22  1  0.35147467  0.38490433  0.57373733  1
  Ni  Ni23  1  0.61509567  0.96657033  0.57373733  1
  Ni  Ni24  1  0.70009633  0.98185867  0.90707067  1
  Ni  Ni25  1  0.01814133  0.71823767  0.90707067  1
  Ni  Ni26  1  0.28176233  0.29990367  0.90707067  1
  Ni  Ni27  1  0.63323700  0.68480800  0.75959600  1
  Ni  Ni28  1  0.31519200  0.94842900  0.75959600  1
  Ni  Ni29  1  0.05157100  0.36676300  0.75959600  1
  Ni  Ni30  1  0.96657033  0.35147467  0.42626267  1
  Ni  Ni31  1  0.64852533  0.61509567  0.42626267  1
  Ni  Ni32  1  0.38490433  0.03342967  0.42626267  1
  Ni  Ni33  1  0.29990367  0.01814133  0.09292933  1
  Ni  Ni34  1  0.98185867  0.28176233  0.09292933  1
  Ni  Ni35  1  0.71823767  0.70009633  0.09292933  1
  O  O36  1  0.29639210  0.32317150  0.18202000  1
  O  O37  1  0.67682850  0.97322060  0.18202000  1
  O  O38  1  0.02677940  0.70360790  0.18202000  1
  O  O39  1  0.96305877  0.65650483  0.51535333  1
  O  O40  1  0.34349517  0.30655393  0.51535333  1
  O  O41  1  0.69344607  0.03694123  0.51535333  1
  O  O42  1  0.62972543  0.98983817  0.84868667  1
  O  O43  1  0.01016183  0.63988727  0.84868667  1
  O  O44  1  0.36011273  0.37027457  0.84868667  1
  O  O45  1  0.70360790  0.67682850  0.81798000  1
  O  O46  1  0.32317150  0.02677940  0.81798000  1
  O  O47  1  0.97322060  0.29639210  0.81798000  1
  O  O48  1  0.03694123  0.34349517  0.48464667  1
  O  O49  1  0.65650483  0.69344607  0.48464667  1
  O  O50  1  0.30655393  0.96305877  0.48464667  1
  O  O51  1  0.37027457  0.01016183  0.15131333  1
  O  O52  1  0.98983817  0.36011273  0.15131333  1
  O  O53  1  0.63988727  0.62972543  0.15131333  1
  O  O54  1  0.27318210  0.35735150  0.00082000  1
  O  O55  1  0.64264850  0.91583060  0.00082000  1
  O  O56  1  0.08416940  0.72681790  0.00082000  1
  O  O57  1  0.93984877  0.69068483  0.33415333  1
  O  O58  1  0.30931517  0.24916393  0.33415333  1
  O  O59  1  0.75083607  0.06015123  0.33415333  1
  O  O60  1  0.60651543  0.02401817  0.66748667  1
  O  O61  1  0.97598183  0.58249727  0.66748667  1
  O  O62  1  0.41750273  0.39348457  0.66748667  1
  O  O63  1  0.72681790  0.64264850  0.00000000  1
  O  O64  1  0.35735150  0.08416940  0.00000000  1
  O  O65  1  0.91583060  0.27318210  0.00000000  1
  O  O66  1  0.06015123  0.30931517  0.66584667  1
  O  O67  1  0.69068483  0.75083607  0.66584667  1
  O  O68  1  0.24916393  0.93984877  0.66584667  1
  O  O69  1  0.39348457  0.97598183  0.33251333  1
  O  O70  1  0.02401817  0.41750273  0.33251333  1
  O  O71  1  0.58249727  0.60651543  0.33251333  1
  O  O72  1  0.23069210  0.30145150  0.30372000  1
  O  O73  1  0.69854850  0.92924060  0.30372000  1
  O  O74  1  0.07075940  0.76930790  0.30372000  1
  O  O75  1  0.89735877  0.63478483  0.63705333  1
  O  O76  1  0.36521517  0.26257393  0.63705333  1
  O  O77  1  0.73742607  0.10264123  0.63705333  1
  O  O78  1  0.56402543  0.96811817  0.97038667  1
  O  O79  1  0.03188183  0.59590727  0.97038667  1
  O  O80  1  0.40409273  0.43597457  0.97038667  1
  O  O81  1  0.76930790  0.69854850  0.69628000  1
  O  O82  1  0.30145150  0.07075940  0.69628000  1
  O  O83  1  0.92924060  0.23069210  0.69628000  1
  O  O84  1  0.10264123  0.36521517  0.36294667  1
  O  O85  1  0.63478483  0.73742607  0.36294667  1
  O  O86  1  0.26257393  0.89735877  0.36294667  1
  O  O87  1  0.43597457  0.03188183  0.02961333  1
  O  O88  1  0.96811817  0.40409273  0.02961333  1
  O  O89  1  0.59590727  0.56402543  0.02961333  1
  O  O90  1  0.05700210  0.30564150  0.17222000  1
  O  O91  1  0.69435850  0.75136060  0.17222000  1
  O  O92  1  0.24863940  0.94299790  0.17222000  1
  O  O93  1  0.72366877  0.63897483  0.50555333  1
  O  O94  1  0.36102517  0.08469393  0.50555333  1
  O  O95  1  0.91530607  0.27633123  0.50555333  1
  O  O96  1  0.39033543  0.97230817  0.83888667  1
  O  O97  1  0.02769183  0.41802727  0.83888667  1
  O  O98  1  0.58197273  0.60966457  0.83888667  1
  O  O99  1  0.94299790  0.69435850  0.82778000  1
  O  O100  1  0.30564150  0.24863940  0.82778000  1
  O  O101  1  0.75136060  0.05700210  0.82778000  1
  O  O102  1  0.27633123  0.36102517  0.49444667  1
  O  O103  1  0.63897483  0.91530607  0.49444667  1
  O  O104  1  0.08469393  0.72366877  0.49444667  1
  O  O105  1  0.60966457  0.02769183  0.16111333  1
  O  O106  1  0.97230817  0.58197273  0.16111333  1
  O  O107  1  0.41802727  0.39033543  0.16111333  1
  O  O108  1  0.10210210  0.36165160  0.86918000  1
  O  O109  1  0.63834840  0.74045050  0.86918000  1
  O  O110  1  0.25954950  0.89789790  0.86918000  1
  O  O111  1  0.76876877  0.69498493  0.20251333  1
  O  O112  1  0.30501507  0.07378383  0.20251333  1
  O  O113  1  0.92621617  0.23123123  0.20251333  1
  O  O114  1  0.43543543  0.02831827  0.53584667  1
  O  O115  1  0.97168173  0.40711717  0.53584667  1
  O  O116  1  0.59288283  0.56456457  0.53584667  1
  O  O117  1  0.89789790  0.63834840  0.13082000  1
  O  O118  1  0.36165160  0.25954950  0.13082000  1
  O  O119  1  0.74045050  0.10210210  0.13082000  1
  O  O120  1  0.23123123  0.30501507  0.79748667  1
  O  O121  1  0.69498493  0.92621617  0.79748667  1
  O  O122  1  0.07378383  0.76876877  0.79748667  1
  O  O123  1  0.56456457  0.97168173  0.46415333  1
  O  O124  1  0.02831827  0.59288283  0.46415333  1
  O  O125  1  0.40711717  0.43543543  0.46415333  1
  O  O126  1  0.03500210  0.33870150  0.98798000  1
  O  O127  1  0.66129850  0.69630060  0.98798000  1
  O  O128  1  0.30369940  0.96499790  0.98798000  1
  O  O129  1  0.70166877  0.67203483  0.32131333  1
  O  O130  1  0.32796517  0.02963393  0.32131333  1
  O  O131  1  0.97036607  0.29833123  0.32131333  1
  O  O132  1  0.36833543  0.00536817  0.65464667  1
  O  O133  1  0.99463183  0.36296727  0.65464667  1
  O  O134  1  0.63703273  0.63166457  0.65464667  1
  O  O135  1  0.96499790  0.66129850  0.01202000  1
  O  O136  1  0.33870150  0.30369940  0.01202000  1
  O  O137  1  0.69630060  0.03500210  0.01202000  1
  O  O138  1  0.29833123  0.32796517  0.67868667  1
  O  O139  1  0.67203483  0.97036607  0.67868667  1
  O  O140  1  0.02963393  0.70166877  0.67868667  1
  O  O141  1  0.63166457  0.99463183  0.34535333  1
  O  O142  1  0.00536817  0.63703273  0.34535333  1
  O  O143  1  0.36296727  0.36833543  0.34535333  1
  C  C144  1  0.24712260  0.31652190  0.21523000  1
  C  C145  1  0.68347810  0.93060070  0.21523000  1
  C  C146  1  0.06939930  0.75287740  0.21523000  1
  C  C147  1  0.91378927  0.64985523  0.54856333  1
  C  C148  1  0.35014477  0.26393403  0.54856333  1
  C  C149  1  0.73606597  0.08621073  0.54856333  1
  C  C150  1  0.58045593  0.98318857  0.88189667  1
  C  C151  1  0.01681143  0.59726737  0.88189667  1
  C  C152  1  0.40273263  0.41954407  0.88189667  1
  C  C153  1  0.75287740  0.68347810  0.78477000  1
  C  C154  1  0.31652190  0.06939930  0.78477000  1
  C  C155  1  0.93060070  0.24712260  0.78477000  1
  C  C156  1  0.08621073  0.35014477  0.45143667  1
  C  C157  1  0.64985523  0.73606597  0.45143667  1
  C  C158  1  0.26393403  0.91378927  0.45143667  1
  C  C159  1  0.41954407  0.01681143  0.11810333  1
  C  C160  1  0.98318857  0.40273263  0.11810333  1
  C  C161  1  0.59726737  0.58045593  0.11810333  1
  C  C162  1  0.22132280  0.34352000  0.04593000  1
  C  C163  1  0.65648000  0.87780280  0.04593000  1
  C  C164  1  0.12219720  0.77867720  0.04593000  1
  C  C165  1  0.88798947  0.67685333  0.37926333  1
  C  C166  1  0.32314667  0.21113613  0.37926333  1
  C  C167  1  0.78886387  0.11201053  0.37926333  1
  C  C168  1  0.55465613  0.01018667  0.71259667  1
  C  C169  1  0.98981333  0.54446947  0.71259667  1
  C  C170  1  0.45553053  0.44534387  0.71259667  1
  C  C171  1  0.77867720  0.65648000  0.95407000  1
  C  C172  1  0.34352000  0.12219720  0.95407000  1
  C  C173  1  0.87780280  0.22132280  0.95407000  1
  C  C174  1  0.11201053  0.32314667  0.62073667  1
  C  C175  1  0.67685333  0.78886387  0.62073667  1
  C  C176  1  0.21113613  0.88798947  0.62073667  1
  C  C177  1  0.44534387  0.98981333  0.28740333  1
  C  C178  1  0.01018667  0.45553053  0.28740333  1
  C  C179  1  0.54446947  0.55465613  0.28740333  1
  C  C180  1  0.20738280  0.32602000  0.14683000  1
  C  C181  1  0.67398000  0.88136280  0.14683000  1
  C  C182  1  0.11863720  0.79261720  0.14683000  1
  C  C183  1  0.87404947  0.65935333  0.48016333  1
  C  C184  1  0.34064667  0.21469613  0.48016333  1
  C  C185  1  0.78530387  0.12595053  0.48016333  1
  C  C186  1  0.54071613  0.99268667  0.81349667  1
  C  C187  1  0.00731333  0.54802947  0.81349667  1
  C  C188  1  0.45197053  0.45928387  0.81349667  1
  C  C189  1  0.79261720  0.67398000  0.85317000  1
  C  C190  1  0.32602000  0.11863720  0.85317000  1
  C  C191  1  0.88136280  0.20738280  0.85317000  1
  C  C192  1  0.12595053  0.34064667  0.51983667  1
  C  C193  1  0.65935333  0.78530387  0.51983667  1
  C  C194  1  0.21469613  0.87404947  0.51983667  1
  C  C195  1  0.45928387  0.00731333  0.18650333  1
  C  C196  1  0.99268667  0.45197053  0.18650333  1
  C  C197  1  0.54802947  0.54071613  0.18650333  1
  C  C198  1  0.15171280  0.31472000  0.18443000  1
  C  C199  1  0.68528000  0.83699280  0.18443000  1
  C  C200  1  0.16300720  0.84828720  0.18443000  1
  C  C201  1  0.81837947  0.64805333  0.51776333  1
  C  C202  1  0.35194667  0.17032613  0.51776333  1
  C  C203  1  0.82967387  0.18162053  0.51776333  1
  C  C204  1  0.48504613  0.98138667  0.85109667  1
  C  C205  1  0.01861333  0.50365947  0.85109667  1
  C  C206  1  0.49634053  0.51495387  0.85109667  1
  C  C207  1  0.84828720  0.68528000  0.81557000  1
  C  C208  1  0.31472000  0.16300720  0.81557000  1
  C  C209  1  0.83699280  0.15171280  0.81557000  1
  C  C210  1  0.18162053  0.35194667  0.48223667  1
  C  C211  1  0.64805333  0.82967387  0.48223667  1
  C  C212  1  0.17032613  0.81837947  0.48223667  1
  C  C213  1  0.51495387  0.01861333  0.14890333  1
  C  C214  1  0.98138667  0.49634053  0.14890333  1
  C  C215  1  0.50365947  0.48504613  0.14890333  1
  H  H216  1  0.14298000  0.30366000  0.25208000  1
  H  H217  1  0.69634000  0.83932000  0.25208000  1
  H  H218  1  0.16068000  0.85702000  0.25208000  1
  H  H219  1  0.80964667  0.63699333  0.58541333  1
  H  H220  1  0.36300667  0.17265333  0.58541333  1
  H  H221  1  0.82734667  0.19035333  0.58541333  1
  H  H222  1  0.47631333  0.97032667  0.91874667  1
  H  H223  1  0.02967333  0.50598667  0.91874667  1
  H  H224  1  0.49401333  0.52368667  0.91874667  1
  H  H225  1  0.85702000  0.69634000  0.74792000  1
  H  H226  1  0.30366000  0.16068000  0.74792000  1
  H  H227  1  0.83932000  0.14298000  0.74792000  1
  H  H228  1  0.19035333  0.36300667  0.41458667  1
  H  H229  1  0.63699333  0.82734667  0.41458667  1
  H  H230  1  0.17265333  0.80964667  0.41458667  1
  H  H231  1  0.52368667  0.02967333  0.08125333  1
  H  H232  1  0.97032667  0.49401333  0.08125333  1
  H  H233  1  0.50598667  0.47631333  0.08125333  1
  C  C234  1  0.10874280  0.31872000  0.12783000  1
  C  C235  1  0.68128000  0.79002280  0.12783000  1
  C  C236  1  0.20997720  0.89125720  0.12783000  1
  C  C237  1  0.77540947  0.65205333  0.46116333  1
  C  C238  1  0.34794667  0.12335613  0.46116333  1
  C  C239  1  0.87664387  0.22459053  0.46116333  1
  C  C240  1  0.44207613  0.98538667  0.79449667  1
  C  C241  1  0.01461333  0.45668947  0.79449667  1
  C  C242  1  0.54331053  0.55792387  0.79449667  1
  C  C243  1  0.89125720  0.68128000  0.87217000  1
  C  C244  1  0.31872000  0.20997720  0.87217000  1
  C  C245  1  0.79002280  0.10874280  0.87217000  1
  C  C246  1  0.22459053  0.34794667  0.53883667  1
  C  C247  1  0.65205333  0.87664387  0.53883667  1
  C  C248  1  0.12335613  0.77540947  0.53883667  1
  C  C249  1  0.55792387  0.01461333  0.20550333  1
  C  C250  1  0.98538667  0.54331053  0.20550333  1
  C  C251  1  0.45668947  0.44207613  0.20550333  1
  C  C252  1  0.12353000  0.33622000  0.02703000  1
  C  C253  1  0.66378000  0.78731000  0.02703000  1
  C  C254  1  0.21269000  0.87647000  0.02703000  1
  C  C255  1  0.79019667  0.66955333  0.36036333  1
  C  C256  1  0.33044667  0.12064333  0.36036333  1
  C  C257  1  0.87935667  0.20980333  0.36036333  1
  C  C258  1  0.45686333  0.00288667  0.69369667  1
  C  C259  1  0.00000000  0.45397667  0.69369667  1
  C  C260  1  0.54602333  0.54313667  0.69369667  1
  C  C261  1  0.87647000  0.66378000  0.97297000  1
  C  C262  1  0.33622000  0.21269000  0.97297000  1
  C  C263  1  0.78731000  0.12353000  0.97297000  1
  C  C264  1  0.20980333  0.33044667  0.63963667  1
  C  C265  1  0.66955333  0.87935667  0.63963667  1
  C  C266  1  0.12064333  0.79019667  0.63963667  1
  C  C267  1  0.54313667  0.00000000  0.30630333  1
  C  C268  1  0.00288667  0.54602333  0.30630333  1
  C  C269  1  0.45397667  0.45686333  0.30630333  1
  C  C270  1  0.17873280  0.34742000  0.98917000  1
  C  C271  1  0.65258000  0.83131280  0.98917000  1
  C  C272  1  0.16868720  0.82126720  0.98917000  1
  C  C273  1  0.84539947  0.68075333  0.32250333  1
  C  C274  1  0.31924667  0.16464613  0.32250333  1
  C  C275  1  0.83535387  0.15460053  0.32250333  1
  C  C276  1  0.51206613  0.01408667  0.65583667  1
  C  C277  1  0.98591333  0.49797947  0.65583667  1
  C  C278  1  0.50202053  0.48793387  0.65583667  1
  C  C279  1  0.82126720  0.65258000  0.01083000  1
  C  C280  1  0.34742000  0.16868720  0.01083000  1
  C  C281  1  0.83131280  0.17873280  0.01083000  1
  C  C282  1  0.15460053  0.31924667  0.67749667  1
  C  C283  1  0.68075333  0.83535387  0.67749667  1
  C  C284  1  0.16464613  0.84539947  0.67749667  1
  C  C285  1  0.48793387  0.98591333  0.34416333  1
  C  C286  1  0.01408667  0.50202053  0.34416333  1
  C  C287  1  0.49797947  0.51206613  0.34416333  1
  H  H288  1  0.18724000  0.35806000  0.92139000  1
  H  H289  1  0.64194000  0.82918000  0.92139000  1
  H  H290  1  0.17082000  0.81276000  0.92139000  1
  H  H291  1  0.85390667  0.69139333  0.25472333  1
  H  H292  1  0.30860667  0.16251333  0.25472333  1
  H  H293  1  0.83748667  0.14609333  0.25472333  1
  H  H294  1  0.52057333  0.02472667  0.58805667  1
  H  H295  1  0.97527333  0.49584667  0.58805667  1
  H  H296  1  0.50415333  0.47942667  0.58805667  1
  H  H297  1  0.81276000  0.64194000  0.07861000  1
  H  H298  1  0.35806000  0.17082000  0.07861000  1
  H  H299  1  0.82918000  0.18724000  0.07861000  1
  H  H300  1  0.14609333  0.30860667  0.74527667  1
  H  H301  1  0.69139333  0.83748667  0.74527667  1
  H  H302  1  0.16251333  0.85390667  0.74527667  1
  H  H303  1  0.47942667  0.97527333  0.41194333  1
  H  H304  1  0.02472667  0.50415333  0.41194333  1
  H  H305  1  0.49584667  0.52057333  0.41194333  1
  C  C306  1  0.08432270  0.34604190  0.95647000  1
  C  C307  1  0.65395810  0.73828080  0.95647000  1
  C  C308  1  0.26171920  0.91567730  0.95647000  1
  C  C309  1  0.75098937  0.67937523  0.28980333  1
  C  C310  1  0.32062477  0.07161413  0.28980333  1
  C  C311  1  0.92838587  0.24901063  0.28980333  1
  C  C312  1  0.41765603  0.01270857  0.62313667  1
  C  C313  1  0.98729143  0.40494747  0.62313667  1
  C  C314  1  0.59505253  0.58234397  0.62313667  1
  C  C315  1  0.91567730  0.65395810  0.04353000  1
  C  C316  1  0.34604190  0.26171920  0.04353000  1
  C  C317  1  0.73828080  0.08432270  0.04353000  1
  C  C318  1  0.24901063  0.32062477  0.71019667  1
  C  C319  1  0.67937523  0.92838587  0.71019667  1
  C  C320  1  0.07161413  0.75098937  0.71019667  1
  C  C321  1  0.58234397  0.98729143  0.37686333  1
  C  C322  1  0.01270857  0.59505253  0.37686333  1
  C  C323  1  0.40494747  0.41765603  0.37686333  1
